1
    SWAT Jun 01 2011    VER 2009/Rev. 481                                                                0/ 0/   0      0: 0: 0

    General Input/Output section (file.cio):                                        
    2013-7-14 00:00:00 ARCGIS-SWAT interface AV                                     
                                                                                    


       RCH      GIS   MON     AREAkm2  FLOW_INcms FLOW_OUTcms     EVAPcms    TLOSScms  SED_INtons SED_OUTtonsSEDCONCmg/kg   ORGN_INkg  ORGN_OUTkg   ORGP_INkg  ORGP_OUTkg    NO3_INkg   NO3_OUTkg    NH4_INkg   NH4_OUTkg    NO2_INkg   NO2_OUTkg   MINP_INkg  MINP_OUTkg   CHLA_INkg  CHLA_OUTkg   CBOD_INkg  CBOD_OUTkg  DISOX_INkg DISOX_OUTkg SOLPST_INmgSOLPST_OUTmg SORPST_INmgSORPST_OUTmg  REACTPSTmg    VOLPSTmg  SETTLPSTmgRESUSP_PSTmgDIFFUSEPSTmgREACBEDPSTmg   BURYPSTmg   BED_PSTmg BACTP_OUTctBACTLP_OUTct  CMETAL#1kg  CMETAL#2kg  CMETAL#3kg
REACH    1        0     1  0.7646E+02  0.1755E+00  0.1744E+00  0.9089E-03  0.9302E-01  0.5863E-03  0.5863E-03  0.3892E-01  0.4953E-02  0.4067E-02  0.6763E-03  0.4954E-03  0.2082E+02  0.2069E+02  0.0000E+00  0.0000E+00  0.0000E+00  0.0000E+00  0.2939E-03  0.8763E-03  0.0000E+00  0.0000E+00  0.0000E+00  0.0000E+00  0.0000E+00  0.4520E-01  0.0000E+00  0.0000E+00  0.0000E+00  0.0000E+00  0.0000E+00  0.0000E+00  0.0000E+00  0.0000E+00  0.0000E+00  0.0000E+00  0.0000E+00  0.0000E+00  0.0000E+00  0.0000E+00  0.0000E+00  0.0000E+00  0.0000E+00
REACH    2        0     1  0.8510E+02  0.1660E+00  0.1649E+00  0.8782E-03  0.8996E-01  0.3179E-05  0.3179E-05  0.2231E-03  0.6437E-05  0.0000E+00  0.1907E-04  0.0000E+00  0.2092E+02  0.2078E+02  0.0000E+00  0.0000E+00  0.0000E+00  0.0000E+00  0.1488E-04  0.4435E-04  0.0000E+00  0.0000E+00  0.0000E+00  0.0000E+00  0.0000E+00  0.4275E-01  0.0000E+00  0.0000E+00  0.0000E+00  0.0000E+00  0.0000E+00  0.0000E+00  0.0000E+00  0.0000E+00  0.0000E+00  0.0000E+00  0.0000E+00  0.0000E+00  0.0000E+00  0.0000E+00  0.0000E+00  0.0000E+00  0.0000E+00
REACH    3        0     1  0.1958E+03  0.4050E+00  0.4032E+00  0.1440E-02  0.1492E+00  0.5369E-02  0.3184E+00  0.9140E+01  0.7356E-01  0.6053E-01  0.1172E-01  0.8603E-02  0.5021E+02  0.4999E+02  0.0000E+00  0.0000E+00  0.0000E+00  0.0000E+00  0.5507E-02  0.1645E-01  0.0000E+00  0.0000E+00  0.0000E+00  0.0000E+00  0.8794E-01  0.2627E+00  0.0000E+00  0.0000E+00  0.0000E+00  0.0000E+00  0.0000E+00  0.0000E+00  0.0000E+00  0.0000E+00  0.0000E+00  0.0000E+00  0.0000E+00  0.0000E+00  0.0000E+00  0.0000E+00  0.0000E+00  0.0000E+00  0.0000E+00
REACH    4        0     1  0.3629E+02  0.9174E-01  0.9156E-01  0.1471E-03  0.1522E-01  0.2254E-02  0.2254E-02  0.2849E+00  0.3765E-01  0.3105E-01  0.6012E-02  0.4423E-02  0.1016E+02  0.1014E+02  0.0000E+00  0.0000E+00  0.0000E+00  0.0000E+00  0.2413E-02  0.7223E-02  0.0000E+00  0.0000E+00  0.0000E+00  0.0000E+00  0.0000E+00  0.2373E-01  0.0000E+00  0.0000E+00  0.0000E+00  0.0000E+00  0.0000E+00  0.0000E+00  0.0000E+00  0.0000E+00  0.0000E+00  0.0000E+00  0.0000E+00  0.0000E+00  0.0000E+00  0.0000E+00  0.0000E+00  0.0000E+00  0.0000E+00
REACH    5        0     1  0.2911E+03  0.6172E+00  0.6130E+00  0.3331E-02  0.3463E+00  0.3207E+00  0.1041E+01  0.1966E+02  0.9158E-01  0.7517E-01  0.1304E-01  0.9544E-02  0.7170E+02  0.7122E+02  0.0000E+00  0.0000E+00  0.0000E+00  0.0000E+00  0.2372E-01  0.5279E-01  0.0000E+00  0.0000E+00  0.0000E+00  0.0000E+00  0.2864E+00  0.8535E+00  0.0000E+00  0.0000E+00  0.0000E+00  0.0000E+00  0.0000E+00  0.0000E+00  0.0000E+00  0.0000E+00  0.0000E+00  0.0000E+00  0.0000E+00  0.0000E+00  0.0000E+00  0.0000E+00  0.0000E+00  0.0000E+00  0.0000E+00
REACH    1        0     2  0.7646E+02  0.1565E+00  0.1550E+00  0.1213E-02  0.9302E-01  0.2781E-03  0.2781E-03  0.2077E-01  0.2430E-02  0.2001E-02  0.3333E-03  0.2459E-03  0.1865E+02  0.1848E+02  0.0000E+00  0.0000E+00  0.0000E+00  0.0000E+00  0.1396E-03  0.4148E-03  0.0000E+00  0.0000E+00  0.0000E+00  0.0000E+00  0.0000E+00  0.4017E-01  0.0000E+00  0.0000E+00  0.0000E+00  0.0000E+00  0.0000E+00  0.0000E+00  0.0000E+00  0.0000E+00  0.0000E+00  0.0000E+00  0.0000E+00  0.0000E+00  0.0000E+00  0.0000E+00  0.0000E+00  0.0000E+00  0.0000E+00
REACH    2        0     2  0.8510E+02  0.1467E+00  0.1453E+00  0.1172E-02  0.8996E-01  0.8044E-06  0.8044E-06  0.6409E-04  0.6357E-05  0.0000E+00  0.1907E-04  0.1407E-04  0.1829E+02  0.1811E+02  0.0000E+00  0.0000E+00  0.0000E+00  0.0000E+00  0.7659E-05  0.0000E+00  0.0000E+00  0.0000E+00  0.0000E+00  0.0000E+00  0.0000E+00  0.3765E-01  0.0000E+00  0.0000E+00  0.0000E+00  0.0000E+00  0.0000E+00  0.0000E+00  0.0000E+00  0.0000E+00  0.0000E+00  0.0000E+00  0.0000E+00  0.0000E+00  0.0000E+00  0.0000E+00  0.0000E+00  0.0000E+00  0.0000E+00
REACH    3        0     2  0.1958E+03  0.3557E+00  0.3534E+00  0.1924E-02  0.1492E+00  0.4172E-02  0.2785E+00  0.9122E+01  0.5859E-01  0.4840E-01  0.9405E-02  0.6961E-02  0.4396E+02  0.4367E+02  0.0000E+00  0.0000E+00  0.0000E+00  0.0000E+00  0.4152E-02  0.1237E-01  0.0000E+00  0.0000E+00  0.0000E+00  0.0000E+00  0.7783E-01  0.2320E+00  0.0000E+00  0.0000E+00  0.0000E+00  0.0000E+00  0.0000E+00  0.0000E+00  0.0000E+00  0.0000E+00  0.0000E+00  0.0000E+00  0.0000E+00  0.0000E+00  0.0000E+00  0.0000E+00  0.0000E+00  0.0000E+00  0.0000E+00
REACH    4        0     2  0.3629E+02  0.8033E-01  0.8009E-01  0.1967E-03  0.1522E-01  0.1909E-02  0.1909E-02  0.2758E+00  0.3188E-01  0.2643E-01  0.5093E-02  0.3782E-02  0.8813E+01  0.8787E+01  0.0000E+00  0.0000E+00  0.0000E+00  0.0000E+00  0.2044E-02  0.6112E-02  0.0000E+00  0.0000E+00  0.0000E+00  0.0000E+00  0.0000E+00  0.2076E-01  0.0000E+00  0.0000E+00  0.0000E+00  0.0000E+00  0.0000E+00  0.0000E+00  0.0000E+00  0.0000E+00  0.0000E+00  0.0000E+00  0.0000E+00  0.0000E+00  0.0000E+00  0.0000E+00  0.0000E+00  0.0000E+00  0.0000E+00
REACH    5        0     2  0.2911E+03  0.5348E+00  0.5296E+00  0.4450E-02  0.3458E+00  0.2804E+00  0.9109E+00  0.1991E+02  0.7483E-01  0.6160E-01  0.1075E-01  0.7933E-02  0.6195E+02  0.6134E+02  0.0000E+00  0.0000E+00  0.0000E+00  0.0000E+00  0.1851E-01  0.4766E-01  0.0000E+00  0.0000E+00  0.0000E+00  0.0000E+00  0.2527E+00  0.7508E+00  0.0000E+00  0.0000E+00  0.0000E+00  0.0000E+00  0.0000E+00  0.0000E+00  0.0000E+00  0.0000E+00  0.0000E+00  0.0000E+00  0.0000E+00  0.0000E+00  0.0000E+00  0.0000E+00  0.0000E+00  0.0000E+00  0.0000E+00
REACH    1        0     3  0.7646E+02  0.1405E+00  0.1389E+00  0.1331E-02  0.9302E-01  0.1330E-03  0.1330E-03  0.1109E-01  0.1194E-02  0.9702E-03  0.1668E-03  0.1205E-03  0.1682E+02  0.1663E+02  0.0000E+00  0.0000E+00  0.0000E+00  0.0000E+00  0.6707E-04  0.1989E-03  0.0000E+00  0.0000E+00  0.0000E+00  0.0000E+00  0.0000E+00  0.3599E-01  0.0000E+00  0.0000E+00  0.0000E+00  0.0000E+00  0.0000E+00  0.0000E+00  0.0000E+00  0.0000E+00  0.0000E+00  0.0000E+00  0.0000E+00  0.0000E+00  0.0000E+00  0.0000E+00  0.0000E+00  0.0000E+00  0.0000E+00
REACH    2        0     3  0.8510E+02  0.1306E+00  0.1290E+00  0.1286E-02  0.8996E-01  0.2066E-06  0.2066E-06  0.1853E-04  0.6357E-05  0.0000E+00  0.1907E-04  0.1377E-04  0.1611E+02  0.1592E+02  0.0000E+00  0.0000E+00  0.0000E+00  0.0000E+00  0.6365E-05  0.0000E+00  0.0000E+00  0.0000E+00  0.0000E+00  0.0000E+00  0.0000E+00  0.3343E-01  0.0000E+00  0.0000E+00  0.0000E+00  0.0000E+00  0.0000E+00  0.0000E+00  0.0000E+00  0.0000E+00  0.0000E+00  0.0000E+00  0.0000E+00  0.0000E+00  0.0000E+00  0.0000E+00  0.0000E+00  0.0000E+00  0.0000E+00
REACH    3        0     3  0.1958E+03  0.3148E+00  0.3123E+00  0.2113E-02  0.1492E+00  0.3306E-02  0.2457E+00  0.9107E+01  0.4710E-01  0.3842E-01  0.7590E-02  0.5501E-02  0.3878E+02  0.3847E+02  0.0000E+00  0.0000E+00  0.0000E+00  0.0000E+00  0.3245E-02  0.9657E-02  0.0000E+00  0.0000E+00  0.0000E+00  0.0000E+00  0.6943E-01  0.2066E+00  0.0000E+00  0.0000E+00  0.0000E+00  0.0000E+00  0.0000E+00  0.0000E+00  0.0000E+00  0.0000E+00  0.0000E+00  0.0000E+00  0.0000E+00  0.0000E+00  0.0000E+00  0.0000E+00  0.0000E+00  0.0000E+00  0.0000E+00
REACH    4        0     3  0.3629E+02  0.7055E-01  0.7029E-01  0.2159E-03  0.1522E-01  0.1616E-02  0.1616E-02  0.2662E+00  0.2700E-01  0.2212E-01  0.4314E-02  0.3141E-02  0.7662E+01  0.7633E+01  0.0000E+00  0.0000E+00  0.0000E+00  0.0000E+00  0.1731E-02  0.5174E-02  0.0000E+00  0.0000E+00  0.0000E+00  0.0000E+00  0.0000E+00  0.1822E-01  0.0000E+00  0.0000E+00  0.0000E+00  0.0000E+00  0.0000E+00  0.0000E+00  0.0000E+00  0.0000E+00  0.0000E+00  0.0000E+00  0.0000E+00  0.0000E+00  0.0000E+00  0.0000E+00  0.0000E+00  0.0000E+00  0.0000E+00
REACH    5        0     3  0.2911E+03  0.4667E+00  0.4608E+00  0.4887E-02  0.3458E+00  0.2473E+00  0.7796E+00  0.1958E+02  0.6054E-01  0.4916E-01  0.8653E-02  0.6243E-02  0.5389E+02  0.5321E+02  0.0000E+00  0.0000E+00  0.0000E+00  0.0000E+00  0.1484E-01  0.4237E-01  0.0000E+00  0.0000E+00  0.0000E+00  0.0000E+00  0.2248E+00  0.6660E+00  0.0000E+00  0.0000E+00  0.0000E+00  0.0000E+00  0.0000E+00  0.0000E+00  0.0000E+00  0.0000E+00  0.0000E+00  0.0000E+00  0.0000E+00  0.0000E+00  0.0000E+00  0.0000E+00  0.0000E+00  0.0000E+00  0.0000E+00
REACH    1        0     4  0.7646E+02  0.1270E+00  0.1251E+00  0.1585E-02  0.9302E-01  0.6405E-04  0.6405E-04  0.5926E-02  0.5868E-03  0.4685E-03  0.8663E-04  0.6078E-04  0.1528E+02  0.1504E+02  0.0000E+00  0.0000E+00  0.0000E+00  0.0000E+00  0.3269E-04  0.9659E-04  0.0000E+00  0.0000E+00  0.0000E+00  0.0000E+00  0.0000E+00  0.3242E-01  0.0000E+00  0.0000E+00  0.0000E+00  0.0000E+00  0.0000E+00  0.0000E+00  0.0000E+00  0.0000E+00  0.0000E+00  0.0000E+00  0.0000E+00  0.0000E+00  0.0000E+00  0.0000E+00  0.0000E+00  0.0000E+00  0.0000E+00
REACH    2        0     4  0.8510E+02  0.1170E+00  0.1153E+00  0.1528E-02  0.8970E-01  0.5605E-07  0.5605E-07  0.5628E-05  0.6357E-05  0.0000E+00  0.1907E-04  0.1338E-04  0.1429E+02  0.1408E+02  0.0000E+00  0.0000E+00  0.0000E+00  0.0000E+00  0.6365E-05  0.0000E+00  0.0000E+00  0.0000E+00  0.0000E+00  0.0000E+00  0.0000E+00  0.2988E-01  0.0000E+00  0.0000E+00  0.0000E+00  0.0000E+00  0.0000E+00  0.0000E+00  0.0000E+00  0.0000E+00  0.0000E+00  0.0000E+00  0.0000E+00  0.0000E+00  0.0000E+00  0.0000E+00  0.0000E+00  0.0000E+00  0.0000E+00
REACH    3        0     4  0.1958E+03  0.2803E+00  0.2773E+00  0.2518E-02  0.1492E+00  0.2651E-02  0.2179E+00  0.9095E+01  0.3807E-01  0.3053E-01  0.6153E-02  0.4336E-02  0.3442E+02  0.3404E+02  0.0000E+00  0.0000E+00  0.0000E+00  0.0000E+00  0.2580E-02  0.7657E-02  0.0000E+00  0.0000E+00  0.0000E+00  0.0000E+00  0.6230E-01  0.1849E+00  0.0000E+00  0.0000E+00  0.0000E+00  0.0000E+00  0.0000E+00  0.0000E+00  0.0000E+00  0.0000E+00  0.0000E+00  0.0000E+00  0.0000E+00  0.0000E+00  0.0000E+00  0.0000E+00  0.0000E+00  0.0000E+00  0.0000E+00
REACH    4        0     4  0.3629E+02  0.6216E-01  0.6188E-01  0.2562E-03  0.1515E-01  0.1369E-02  0.1369E-02  0.2561E+00  0.2287E-01  0.1846E-01  0.3655E-02  0.2592E-02  0.6678E+01  0.6647E+01  0.0000E+00  0.0000E+00  0.0000E+00  0.0000E+00  0.1467E-02  0.4380E-02  0.0000E+00  0.0000E+00  0.0000E+00  0.0000E+00  0.0000E+00  0.1604E-01  0.0000E+00  0.0000E+00  0.0000E+00  0.0000E+00  0.0000E+00  0.0000E+00  0.0000E+00  0.0000E+00  0.0000E+00  0.0000E+00  0.0000E+00  0.0000E+00  0.0000E+00  0.0000E+00  0.0000E+00  0.0000E+00  0.0000E+00
REACH    5        0     4  0.2911E+03  0.4092E+00  0.4022E+00  0.5828E-02  0.3458E+00  0.2193E+00  0.6677E+00  0.1921E+02  0.4899E-01  0.3904E-01  0.6939E-02  0.4859E-02  0.4710E+02  0.4630E+02  0.0000E+00  0.0000E+00  0.0000E+00  0.0000E+00  0.1204E-01  0.3551E-01  0.0000E+00  0.0000E+00  0.0000E+00  0.0000E+00  0.2009E+00  0.5924E+00  0.0000E+00  0.0000E+00  0.0000E+00  0.0000E+00  0.0000E+00  0.0000E+00  0.0000E+00  0.0000E+00  0.0000E+00  0.0000E+00  0.0000E+00  0.0000E+00  0.0000E+00  0.0000E+00  0.0000E+00  0.0000E+00  0.0000E+00
REACH    1        0     5  0.7646E+02  0.1156E+00  0.1139E+00  0.1390E-02  0.9302E-01  0.3098E-04  0.3098E-04  0.3150E-02  0.2893E-03  0.2275E-03  0.4757E-04  0.3244E-04  0.1396E+02  0.1375E+02  0.0000E+00  0.0000E+00  0.0000E+00  0.0000E+00  0.1697E-04  0.5014E-04  0.0000E+00  0.0000E+00  0.0000E+00  0.0000E+00  0.0000E+00  0.2951E-01  0.0000E+00  0.0000E+00  0.0000E+00  0.0000E+00  0.0000E+00  0.0000E+00  0.0000E+00  0.0000E+00  0.0000E+00  0.0000E+00  0.0000E+00  0.0000E+00  0.0000E+00  0.0000E+00  0.0000E+00  0.0000E+00  0.0000E+00
REACH    2        0     5  0.8510E+02  0.1056E+00  0.1040E+00  0.1340E-02  0.8970E-01  0.1816E-07  0.1816E-07  0.2022E-05  0.6357E-05  0.0000E+00  0.1907E-04  0.1300E-04  0.1277E+02  0.1258E+02  0.0000E+00  0.0000E+00  0.0000E+00  0.0000E+00  0.6365E-05  0.0000E+00  0.0000E+00  0.0000E+00  0.0000E+00  0.0000E+00  0.0000E+00  0.2696E-01  0.0000E+00  0.0000E+00  0.0000E+00  0.0000E+00  0.0000E+00  0.0000E+00  0.0000E+00  0.0000E+00  0.0000E+00  0.0000E+00  0.0000E+00  0.0000E+00  0.0000E+00  0.0000E+00  0.0000E+00  0.0000E+00  0.0000E+00
REACH    3        0     5  0.1958E+03  0.2520E+00  0.2494E+00  0.2205E-02  0.1489E+00  0.2140E-02  0.1959E+00  0.9093E+01  0.3088E-01  0.2439E-01  0.5002E-02  0.3428E-02  0.3084E+02  0.3052E+02  0.0000E+00  0.0000E+00  0.0000E+00  0.0000E+00  0.2075E-02  0.6162E-02  0.0000E+00  0.0000E+00  0.0000E+00  0.0000E+00  0.5647E-01  0.1676E+00  0.0000E+00  0.0000E+00  0.0000E+00  0.0000E+00  0.0000E+00  0.0000E+00  0.0000E+00  0.0000E+00  0.0000E+00  0.0000E+00  0.0000E+00  0.0000E+00  0.0000E+00  0.0000E+00  0.0000E+00  0.0000E+00  0.0000E+00
REACH    4        0     5  0.3629E+02  0.5495E-01  0.5468E-01  0.2245E-03  0.1515E-01  0.1159E-02  0.1159E-02  0.2454E+00  0.1937E-01  0.1538E-01  0.3097E-02  0.2134E-02  0.5837E+01  0.5808E+01  0.0000E+00  0.0000E+00  0.0000E+00  0.0000E+00  0.1243E-02  0.3709E-02  0.0000E+00  0.0000E+00  0.0000E+00  0.0000E+00  0.0000E+00  0.1417E-01  0.0000E+00  0.0000E+00  0.0000E+00  0.0000E+00  0.0000E+00  0.0000E+00  0.0000E+00  0.0000E+00  0.0000E+00  0.0000E+00  0.0000E+00  0.0000E+00  0.0000E+00  0.0000E+00  0.0000E+00  0.0000E+00  0.0000E+00
REACH    5        0     5  0.2911E+03  0.3626E+00  0.3564E+00  0.5107E-02  0.3458E+00  0.1971E+00  0.5792E+00  0.1881E+02  0.3977E-01  0.3119E-01  0.5573E-02  0.3792E-02  0.4162E+02  0.4090E+02  0.0000E+00  0.0000E+00  0.0000E+00  0.0000E+00  0.9876E-02  0.2911E-01  0.0000E+00  0.0000E+00  0.0000E+00  0.0000E+00  0.1818E+00  0.5360E+00  0.0000E+00  0.0000E+00  0.0000E+00  0.0000E+00  0.0000E+00  0.0000E+00  0.0000E+00  0.0000E+00  0.0000E+00  0.0000E+00  0.0000E+00  0.0000E+00  0.0000E+00  0.0000E+00  0.0000E+00  0.0000E+00  0.0000E+00
REACH    1        0     6  0.7646E+02  0.1058E+00  0.1045E+00  0.1141E-02  0.9273E-01  0.1505E-04  0.1505E-04  0.1667E-02  0.1436E-03  0.1131E-03  0.2939E-04  0.2005E-04  0.1282E+02  0.1266E+02  0.0000E+00  0.0000E+00  0.0000E+00  0.0000E+00  0.9649E-05  0.2858E-04  0.0000E+00  0.0000E+00  0.0000E+00  0.0000E+00  0.0000E+00  0.2708E-01  0.0000E+00  0.0000E+00  0.0000E+00  0.0000E+00  0.0000E+00  0.0000E+00  0.0000E+00  0.0000E+00  0.0000E+00  0.0000E+00  0.0000E+00  0.0000E+00  0.0000E+00  0.0000E+00  0.0000E+00  0.0000E+00  0.0000E+00
REACH    2        0     6  0.8510E+02  0.9595E-01  0.9458E-01  0.1103E-02  0.8970E-01  0.8627E-08  0.8627E-08  0.1056E-05  0.6357E-05  0.0000E+00  0.1907E-04  0.1299E-04  0.1149E+02  0.1133E+02  0.0000E+00  0.0000E+00  0.0000E+00  0.0000E+00  0.6365E-05  0.0000E+00  0.0000E+00  0.0000E+00  0.0000E+00  0.0000E+00  0.0000E+00  0.2451E-01  0.0000E+00  0.0000E+00  0.0000E+00  0.0000E+00  0.0000E+00  0.0000E+00  0.0000E+00  0.0000E+00  0.0000E+00  0.0000E+00  0.0000E+00  0.0000E+00  0.0000E+00  0.0000E+00  0.0000E+00  0.0000E+00  0.0000E+00
REACH    3        0     6  0.1958E+03  0.2284E+00  0.2262E+00  0.1813E-02  0.1489E+00  0.1734E-02  0.1775E+00  0.9083E+01  0.2510E-01  0.1981E-01  0.4075E-02  0.2788E-02  0.2786E+02  0.2759E+02  0.0000E+00  0.0000E+00  0.0000E+00  0.0000E+00  0.1680E-02  0.4991E-02  0.0000E+00  0.0000E+00  0.0000E+00  0.0000E+00  0.5160E-01  0.1533E+00  0.0000E+00  0.0000E+00  0.0000E+00  0.0000E+00  0.0000E+00  0.0000E+00  0.0000E+00  0.0000E+00  0.0000E+00  0.0000E+00  0.0000E+00  0.0000E+00  0.0000E+00  0.0000E+00  0.0000E+00  0.0000E+00  0.0000E+00
REACH    4        0     6  0.3629E+02  0.4875E-01  0.4852E-01  0.1846E-03  0.1515E-01  0.9818E-03  0.9818E-03  0.2342E+00  0.1640E-01  0.1301E-01  0.2624E-02  0.1805E-02  0.5116E+01  0.5092E+01  0.0000E+00  0.0000E+00  0.0000E+00  0.0000E+00  0.1053E-02  0.3143E-02  0.0000E+00  0.0000E+00  0.0000E+00  0.0000E+00  0.0000E+00  0.1258E-01  0.0000E+00  0.0000E+00  0.0000E+00  0.0000E+00  0.0000E+00  0.0000E+00  0.0000E+00  0.0000E+00  0.0000E+00  0.0000E+00  0.0000E+00  0.0000E+00  0.0000E+00  0.0000E+00  0.0000E+00  0.0000E+00  0.0000E+00
REACH    5        0     6  0.2911E+03  0.3239E+00  0.3314E+00  0.0000E+00  0.3239E+00  0.1785E+00  0.5542E+00  0.1936E+02  0.3283E-01  0.2678E-01  0.4604E-02  0.3255E-02  0.3705E+02  0.3791E+02  0.0000E+00  0.0000E+00  0.0000E+00  0.0000E+00  0.8138E-02  0.2498E-01  0.0000E+00  0.0000E+00  0.0000E+00  0.0000E+00  0.1659E+00  0.5091E+00  0.0000E+00  0.0000E+00  0.0000E+00  0.0000E+00  0.0000E+00  0.0000E+00  0.0000E+00  0.0000E+00  0.0000E+00  0.0000E+00  0.0000E+00  0.0000E+00  0.0000E+00  0.0000E+00  0.0000E+00  0.0000E+00  0.0000E+00
REACH    1        0     7  0.7646E+02  0.9741E-01  0.9537E-01  0.1722E-02  0.9273E-01  0.7331E-05  0.7331E-05  0.8897E-03  0.7197E-04  0.5416E-04  0.2046E-04  0.1293E-04  0.1184E+02  0.1160E+02  0.0000E+00  0.0000E+00  0.0000E+00  0.0000E+00  0.6047E-05  0.0000E+00  0.0000E+00  0.0000E+00  0.0000E+00  0.0000E+00  0.0000E+00  0.2472E-01  0.0000E+00  0.0000E+00  0.0000E+00  0.0000E+00  0.0000E+00  0.0000E+00  0.0000E+00  0.0000E+00  0.0000E+00  0.0000E+00  0.0000E+00  0.0000E+00  0.0000E+00  0.0000E+00  0.0000E+00  0.0000E+00  0.0000E+00
REACH    2        0     7  0.8510E+02  0.8770E-01  0.8813E-01  0.0000E+00  0.8770E-01  0.6226E-08  0.6226E-08  0.8177E-06  0.6357E-05  0.0000E+00  0.1907E-04  0.1237E-04  0.1041E+02  0.1046E+02  0.0000E+00  0.0000E+00  0.0000E+00  0.0000E+00  0.6365E-05  0.0000E+00  0.0000E+00  0.0000E+00  0.0000E+00  0.0000E+00  0.0000E+00  0.2284E-01  0.0000E+00  0.0000E+00  0.0000E+00  0.0000E+00  0.0000E+00  0.0000E+00  0.0000E+00  0.0000E+00  0.0000E+00  0.0000E+00  0.0000E+00  0.0000E+00  0.0000E+00  0.0000E+00  0.0000E+00  0.0000E+00  0.0000E+00
REACH    3        0     7  0.1958E+03  0.2089E+00  0.2056E+00  0.2742E-02  0.1489E+00  0.1408E-02  0.1612E+00  0.9074E+01  0.2042E-01  0.1545E-01  0.3322E-02  0.2111E-02  0.2540E+02  0.2499E+02  0.0000E+00  0.0000E+00  0.0000E+00  0.0000E+00  0.1347E-02  0.3977E-02  0.0000E+00  0.0000E+00  0.0000E+00  0.0000E+00  0.4756E-01  0.1404E+00  0.0000E+00  0.0000E+00  0.0000E+00  0.0000E+00  0.0000E+00  0.0000E+00  0.0000E+00  0.0000E+00  0.0000E+00  0.0000E+00  0.0000E+00  0.0000E+00  0.0000E+00  0.0000E+00  0.0000E+00  0.0000E+00  0.0000E+00
REACH    4        0     7  0.3629E+02  0.4341E-01  0.4307E-01  0.2792E-03  0.1515E-01  0.8315E-03  0.8315E-03  0.2235E+00  0.1389E-01  0.1059E-01  0.2224E-02  0.1425E-02  0.4499E+01  0.4464E+01  0.0000E+00  0.0000E+00  0.0000E+00  0.0000E+00  0.8920E-03  0.2655E-02  0.0000E+00  0.0000E+00  0.0000E+00  0.0000E+00  0.0000E+00  0.1116E-01  0.0000E+00  0.0000E+00  0.0000E+00  0.0000E+00  0.0000E+00  0.0000E+00  0.0000E+00  0.0000E+00  0.0000E+00  0.0000E+00  0.0000E+00  0.0000E+00  0.0000E+00  0.0000E+00  0.0000E+00  0.0000E+00  0.0000E+00
REACH    5        0     7  0.2911E+03  0.2900E+00  0.3053E+00  0.0000E+00  0.2900E+00  0.1620E+00  0.4998E+00  0.1895E+02  0.2605E-01  0.2108E-01  0.3547E-02  0.2410E-02  0.3308E+02  0.3482E+02  0.0000E+00  0.0000E+00  0.0000E+00  0.0000E+00  0.6635E-02  0.2095E-01  0.0000E+00  0.0000E+00  0.0000E+00  0.0000E+00  0.1516E+00  0.4787E+00  0.0000E+00  0.0000E+00  0.0000E+00  0.0000E+00  0.0000E+00  0.0000E+00  0.0000E+00  0.0000E+00  0.0000E+00  0.0000E+00  0.0000E+00  0.0000E+00  0.0000E+00  0.0000E+00  0.0000E+00  0.0000E+00  0.0000E+00
REACH    1        0     8  0.7646E+02  0.9014E-01  0.9072E-01  0.0000E+00  0.9014E-01  0.3581E-05  0.3581E-05  0.4568E-03  0.3671E-04  0.2839E-04  0.1607E-04  0.1043E-04  0.1099E+02  0.1106E+02  0.0000E+00  0.0000E+00  0.0000E+00  0.0000E+00  0.4638E-05  0.0000E+00  0.0000E+00  0.0000E+00  0.0000E+00  0.0000E+00  0.0000E+00  0.2352E-01  0.0000E+00  0.0000E+00  0.0000E+00  0.0000E+00  0.0000E+00  0.0000E+00  0.0000E+00  0.0000E+00  0.0000E+00  0.0000E+00  0.0000E+00  0.0000E+00  0.0000E+00  0.0000E+00  0.0000E+00  0.0000E+00  0.0000E+00
REACH    2        0     8  0.8510E+02  0.8061E-01  0.8326E-01  0.0000E+00  0.8061E-01  0.6167E-08  0.6167E-08  0.8572E-06  0.6357E-05  0.0000E+00  0.1907E-04  0.1271E-04  0.9491E+01  0.9803E+01  0.0000E+00  0.0000E+00  0.0000E+00  0.0000E+00  0.6365E-05  0.0000E+00  0.0000E+00  0.0000E+00  0.0000E+00  0.0000E+00  0.0000E+00  0.2158E-01  0.0000E+00  0.0000E+00  0.0000E+00  0.0000E+00  0.0000E+00  0.0000E+00  0.0000E+00  0.0000E+00  0.0000E+00  0.0000E+00  0.0000E+00  0.0000E+00  0.0000E+00  0.0000E+00  0.0000E+00  0.0000E+00  0.0000E+00
REACH    3        0     8  0.1958E+03  0.1960E+00  0.1921E+00  0.3271E-02  0.1489E+00  0.1146E-02  0.1504E+00  0.9066E+01  0.1663E-01  0.1252E-01  0.2712E-02  0.1714E-02  0.2376E+02  0.2328E+02  0.0000E+00  0.0000E+00  0.0000E+00  0.0000E+00  0.1098E-02  0.3229E-02  0.0000E+00  0.0000E+00  0.0000E+00  0.0000E+00  0.4510E-01  0.1326E+00  0.0000E+00  0.0000E+00  0.0000E+00  0.0000E+00  0.0000E+00  0.0000E+00  0.0000E+00  0.0000E+00  0.0000E+00  0.0000E+00  0.0000E+00  0.0000E+00  0.0000E+00  0.0000E+00  0.0000E+00  0.0000E+00  0.0000E+00
REACH    4        0     8  0.3629E+02  0.3879E-01  0.3839E-01  0.3332E-03  0.1515E-01  0.7042E-03  0.7042E-03  0.2123E+00  0.1176E-01  0.8943E-02  0.1885E-02  0.1203E-02  0.3969E+01  0.3927E+01  0.0000E+00  0.0000E+00  0.0000E+00  0.0000E+00  0.7559E-03  0.2244E-02  0.0000E+00  0.0000E+00  0.0000E+00  0.0000E+00  0.0000E+00  0.9950E-02  0.0000E+00  0.0000E+00  0.0000E+00  0.0000E+00  0.0000E+00  0.0000E+00  0.0000E+00  0.0000E+00  0.0000E+00  0.0000E+00  0.0000E+00  0.0000E+00  0.0000E+00  0.0000E+00  0.0000E+00  0.0000E+00  0.0000E+00
REACH    5        0     8  0.2911E+03  0.2655E+00  0.2800E+00  0.0000E+00  0.2655E+00  0.1512E+00  0.4515E+00  0.1866E+02  0.2147E-01  0.1739E-01  0.2928E-02  0.1992E-02  0.3021E+02  0.3186E+02  0.0000E+00  0.0000E+00  0.0000E+00  0.0000E+00  0.5476E-02  0.1733E-01  0.0000E+00  0.0000E+00  0.0000E+00  0.0000E+00  0.1425E+00  0.4509E+00  0.0000E+00  0.0000E+00  0.0000E+00  0.0000E+00  0.0000E+00  0.0000E+00  0.0000E+00  0.0000E+00  0.0000E+00  0.0000E+00  0.0000E+00  0.0000E+00  0.0000E+00  0.0000E+00  0.0000E+00  0.0000E+00  0.0000E+00
REACH    1        0     9  0.7646E+02  0.8379E-01  0.8631E-01  0.0000E+00  0.8379E-01  0.1753E-05  0.1753E-05  0.2351E-03  0.1936E-04  0.1516E-04  0.1391E-04  0.9057E-05  0.1025E+02  0.1056E+02  0.0000E+00  0.0000E+00  0.0000E+00  0.0000E+00  0.4638E-05  0.0000E+00  0.0000E+00  0.0000E+00  0.0000E+00  0.0000E+00  0.0000E+00  0.2237E-01  0.0000E+00  0.0000E+00  0.0000E+00  0.0000E+00  0.0000E+00  0.0000E+00  0.0000E+00  0.0000E+00  0.0000E+00  0.0000E+00  0.0000E+00  0.0000E+00  0.0000E+00  0.0000E+00  0.0000E+00  0.0000E+00  0.0000E+00
REACH    2        0     9  0.8510E+02  0.7449E-01  0.7774E-01  0.0000E+00  0.7449E-01  0.6167E-08  0.6167E-08  0.9182E-06  0.6357E-05  0.0000E+00  0.1907E-04  0.1258E-04  0.8703E+01  0.9083E+01  0.0000E+00  0.0000E+00  0.0000E+00  0.0000E+00  0.6365E-05  0.0000E+00  0.0000E+00  0.0000E+00  0.0000E+00  0.0000E+00  0.0000E+00  0.2015E-01  0.0000E+00  0.0000E+00  0.0000E+00  0.0000E+00  0.0000E+00  0.0000E+00  0.0000E+00  0.0000E+00  0.0000E+00  0.0000E+00  0.0000E+00  0.0000E+00  0.0000E+00  0.0000E+00  0.0000E+00  0.0000E+00  0.0000E+00
REACH    3        0     9  0.1958E+03  0.1833E+00  0.1807E+00  0.2030E-02  0.1489E+00  0.9328E-03  0.1414E+00  0.9058E+01  0.1355E-01  0.1016E-01  0.2215E-02  0.1381E-02  0.2215E+02  0.2184E+02  0.0000E+00  0.0000E+00  0.0000E+00  0.0000E+00  0.8959E-03  0.2650E-02  0.0000E+00  0.0000E+00  0.0000E+00  0.0000E+00  0.4252E-01  0.1258E+00  0.0000E+00  0.0000E+00  0.0000E+00  0.0000E+00  0.0000E+00  0.0000E+00  0.0000E+00  0.0000E+00  0.0000E+00  0.0000E+00  0.0000E+00  0.0000E+00  0.0000E+00  0.0000E+00  0.0000E+00  0.0000E+00  0.0000E+00
REACH    4        0     9  0.3629E+02  0.3480E-01  0.3453E-01  0.2066E-03  0.1515E-01  0.5964E-03  0.5964E-03  0.1999E+00  0.9963E-02  0.7516E-02  0.1598E-02  0.1002E-02  0.3514E+01  0.3487E+01  0.0000E+00  0.0000E+00  0.0000E+00  0.0000E+00  0.6407E-03  0.1907E-02  0.0000E+00  0.0000E+00  0.0000E+00  0.0000E+00  0.0000E+00  0.8951E-02  0.0000E+00  0.0000E+00  0.0000E+00  0.0000E+00  0.0000E+00  0.0000E+00  0.0000E+00  0.0000E+00  0.0000E+00  0.0000E+00  0.0000E+00  0.0000E+00  0.0000E+00  0.0000E+00  0.0000E+00  0.0000E+00  0.0000E+00
REACH    5        0     9  0.2911E+03  0.2451E+00  0.2581E+00  0.0000E+00  0.2451E+00  0.1420E+00  0.4098E+00  0.1838E+02  0.1768E-01  0.1415E-01  0.2394E-02  0.1594E-02  0.2783E+02  0.2930E+02  0.0000E+00  0.0000E+00  0.0000E+00  0.0000E+00  0.4561E-02  0.1441E-01  0.0000E+00  0.0000E+00  0.0000E+00  0.0000E+00  0.1347E+00  0.4256E+00  0.0000E+00  0.0000E+00  0.0000E+00  0.0000E+00  0.0000E+00  0.0000E+00  0.0000E+00  0.0000E+00  0.0000E+00  0.0000E+00  0.0000E+00  0.0000E+00  0.0000E+00  0.0000E+00  0.0000E+00  0.0000E+00  0.0000E+00
REACH    1        0    10  0.7646E+02  0.7821E-01  0.8112E-01  0.0000E+00  0.7821E-01  0.8607E-06  0.8607E-06  0.1228E-03  0.1082E-04  0.8565E-05  0.1389E-04  0.9178E-05  0.9588E+01  0.9945E+01  0.0000E+00  0.0000E+00  0.0000E+00  0.0000E+00  0.4638E-05  0.0000E+00  0.0000E+00  0.0000E+00  0.0000E+00  0.0000E+00  0.0000E+00  0.2103E-01  0.0000E+00  0.0000E+00  0.0000E+00  0.0000E+00  0.0000E+00  0.0000E+00  0.0000E+00  0.0000E+00  0.0000E+00  0.0000E+00  0.0000E+00  0.0000E+00  0.0000E+00  0.0000E+00  0.0000E+00  0.0000E+00  0.0000E+00
REACH    2        0    10  0.8510E+02  0.6916E-01  0.7242E-01  0.0000E+00  0.6916E-01  0.6167E-08  0.6167E-08  0.9856E-06  0.6357E-05  0.0000E+00  0.1907E-04  0.1272E-04  0.8024E+01  0.8403E+01  0.0000E+00  0.0000E+00  0.0000E+00  0.0000E+00  0.6365E-05  0.2000E-04  0.0000E+00  0.0000E+00  0.0000E+00  0.0000E+00  0.0000E+00  0.1877E-01  0.0000E+00  0.0000E+00  0.0000E+00  0.0000E+00  0.0000E+00  0.0000E+00  0.0000E+00  0.0000E+00  0.0000E+00  0.0000E+00  0.0000E+00  0.0000E+00  0.0000E+00  0.0000E+00  0.0000E+00  0.0000E+00  0.0000E+00
REACH    3        0    10  0.1958E+03  0.1702E+00  0.1688E+00  0.1022E-02  0.1489E+00  0.7599E-03  0.1321E+00  0.9052E+01  0.1104E-01  0.8359E-02  0.1812E-02  0.1145E-02  0.2054E+02  0.2038E+02  0.0000E+00  0.0000E+00  0.0000E+00  0.0000E+00  0.7508E-03  0.2234E-02  0.0000E+00  0.0000E+00  0.0000E+00  0.0000E+00  0.3980E-01  0.1184E+00  0.0000E+00  0.0000E+00  0.0000E+00  0.0000E+00  0.0000E+00  0.0000E+00  0.0000E+00  0.0000E+00  0.0000E+00  0.0000E+00  0.0000E+00  0.0000E+00  0.0000E+00  0.0000E+00  0.0000E+00  0.0000E+00  0.0000E+00
REACH    4        0    10  0.3629E+02  0.3119E-01  0.3105E-01  0.1040E-03  0.1515E-01  0.5050E-03  0.5050E-03  0.1883E+00  0.8438E-02  0.6410E-02  0.1355E-02  0.8588E-03  0.3122E+01  0.3108E+01  0.0000E+00  0.0000E+00  0.0000E+00  0.0000E+00  0.5431E-03  0.1622E-02  0.0000E+00  0.0000E+00  0.0000E+00  0.0000E+00  0.0000E+00  0.8048E-02  0.0000E+00  0.0000E+00  0.0000E+00  0.0000E+00  0.0000E+00  0.0000E+00  0.0000E+00  0.0000E+00  0.0000E+00  0.0000E+00  0.0000E+00  0.0000E+00  0.0000E+00  0.0000E+00  0.0000E+00  0.0000E+00  0.0000E+00
REACH    5        0    10  0.2911E+03  0.2254E+00  0.2378E+00  0.0000E+00  0.2254E+00  0.1326E+00  0.3704E+00  0.1802E+02  0.1477E-01  0.1190E-01  0.2014E-02  0.1354E-02  0.2558E+02  0.2699E+02  0.0000E+00  0.0000E+00  0.0000E+00  0.0000E+00  0.3860E-02  0.1222E-01  0.0000E+00  0.0000E+00  0.0000E+00  0.0000E+00  0.1265E+00  0.4003E+00  0.0000E+00  0.0000E+00  0.0000E+00  0.0000E+00  0.0000E+00  0.0000E+00  0.0000E+00  0.0000E+00  0.0000E+00  0.0000E+00  0.0000E+00  0.0000E+00  0.0000E+00  0.0000E+00  0.0000E+00  0.0000E+00  0.0000E+00
REACH    1        0    11  0.7646E+02  0.7328E-01  0.7604E-01  0.0000E+00  0.7328E-01  0.4239E-06  0.4239E-06  0.6453E-04  0.6620E-05  0.0000E+00  0.1389E-04  0.8686E-05  0.9002E+01  0.9341E+01  0.0000E+00  0.0000E+00  0.0000E+00  0.0000E+00  0.4638E-05  0.0000E+00  0.0000E+00  0.0000E+00  0.0000E+00  0.0000E+00  0.0000E+00  0.1971E-01  0.0000E+00  0.0000E+00  0.0000E+00  0.0000E+00  0.0000E+00  0.0000E+00  0.0000E+00  0.0000E+00  0.0000E+00  0.0000E+00  0.0000E+00  0.0000E+00  0.0000E+00  0.0000E+00  0.0000E+00  0.0000E+00  0.0000E+00
REACH    2        0    11  0.8510E+02  0.6448E-01  0.6729E-01  0.0000E+00  0.6448E-01  0.6167E-08  0.6167E-08  0.1061E-05  0.6357E-05  0.0000E+00  0.1907E-04  0.1199E-04  0.7435E+01  0.7758E+01  0.0000E+00  0.0000E+00  0.0000E+00  0.0000E+00  0.6365E-05  0.1993E-04  0.0000E+00  0.0000E+00  0.0000E+00  0.0000E+00  0.0000E+00  0.1744E-01  0.0000E+00  0.0000E+00  0.0000E+00  0.0000E+00  0.0000E+00  0.0000E+00  0.0000E+00  0.0000E+00  0.0000E+00  0.0000E+00  0.0000E+00  0.0000E+00  0.0000E+00  0.0000E+00  0.0000E+00  0.0000E+00  0.0000E+00
REACH    3        0    11  0.1958E+03  0.1583E+00  0.1543E+00  0.3335E-02  0.1489E+00  0.6192E-03  0.1206E+00  0.9047E+01  0.8995E-02  0.6505E-02  0.1481E-02  0.8703E-03  0.1903E+02  0.1856E+02  0.0000E+00  0.0000E+00  0.0000E+00  0.0000E+00  0.6162E-03  0.1803E-02  0.0000E+00  0.0000E+00  0.0000E+00  0.0000E+00  0.3715E-01  0.1087E+00  0.0000E+00  0.0000E+00  0.0000E+00  0.0000E+00  0.0000E+00  0.0000E+00  0.0000E+00  0.0000E+00  0.0000E+00  0.0000E+00  0.0000E+00  0.0000E+00  0.0000E+00  0.0000E+00  0.0000E+00  0.0000E+00  0.0000E+00
REACH    4        0    11  0.3629E+02  0.2833E-01  0.2793E-01  0.3395E-03  0.1515E-01  0.4277E-03  0.4277E-03  0.1773E+00  0.7146E-02  0.5224E-02  0.1149E-02  0.6822E-03  0.2784E+01  0.2744E+01  0.0000E+00  0.0000E+00  0.0000E+00  0.0000E+00  0.4604E-03  0.1361E-02  0.0000E+00  0.0000E+00  0.0000E+00  0.0000E+00  0.0000E+00  0.7239E-02  0.0000E+00  0.0000E+00  0.0000E+00  0.0000E+00  0.0000E+00  0.0000E+00  0.0000E+00  0.0000E+00  0.0000E+00  0.0000E+00  0.0000E+00  0.0000E+00  0.0000E+00  0.0000E+00  0.0000E+00  0.0000E+00  0.0000E+00
REACH    5        0    11  0.2911E+03  0.2042E+00  0.2163E+00  0.0000E+00  0.2042E+00  0.1211E+00  0.3277E+00  0.1754E+02  0.1173E-01  0.9214E-02  0.1563E-02  0.9976E-03  0.2305E+02  0.2442E+02  0.0000E+00  0.0000E+00  0.0000E+00  0.0000E+00  0.3168E-02  0.1006E-01  0.0000E+00  0.0000E+00  0.0000E+00  0.0000E+00  0.1159E+00  0.3683E+00  0.0000E+00  0.0000E+00  0.0000E+00  0.0000E+00  0.0000E+00  0.0000E+00  0.0000E+00  0.0000E+00  0.0000E+00  0.0000E+00  0.0000E+00  0.0000E+00  0.0000E+00  0.0000E+00  0.0000E+00  0.0000E+00  0.0000E+00
REACH    1        0    12  0.7646E+02  0.6888E-01  0.7144E-01  0.0000E+00  0.6888E-01  0.2100E-06  0.2100E-06  0.3401E-04  0.4631E-05  0.0000E+00  0.1389E-04  0.8756E-05  0.8478E+01  0.8794E+01  0.0000E+00  0.0000E+00  0.0000E+00  0.0000E+00  0.4638E-05  0.0000E+00  0.0000E+00  0.0000E+00  0.0000E+00  0.0000E+00  0.0000E+00  0.1852E-01  0.0000E+00  0.0000E+00  0.0000E+00  0.0000E+00  0.0000E+00  0.0000E+00  0.0000E+00  0.0000E+00  0.0000E+00  0.0000E+00  0.0000E+00  0.0000E+00  0.0000E+00  0.0000E+00  0.0000E+00  0.0000E+00  0.0000E+00
REACH    2        0    12  0.8510E+02  0.6035E-01  0.6284E-01  0.0000E+00  0.6035E-01  0.6167E-08  0.6167E-08  0.1136E-05  0.6357E-05  0.0000E+00  0.1907E-04  0.1207E-04  0.6920E+01  0.7205E+01  0.0000E+00  0.0000E+00  0.0000E+00  0.0000E+00  0.6365E-05  0.1988E-04  0.0000E+00  0.0000E+00  0.0000E+00  0.0000E+00  0.0000E+00  0.1629E-01  0.0000E+00  0.0000E+00  0.0000E+00  0.0000E+00  0.0000E+00  0.0000E+00  0.0000E+00  0.0000E+00  0.0000E+00  0.0000E+00  0.0000E+00  0.0000E+00  0.0000E+00  0.0000E+00  0.0000E+00  0.0000E+00  0.0000E+00
REACH    3        0    12  0.1958E+03  0.1476E+00  0.1475E+00  0.0000E+00  0.1476E+00  0.5046E-03  0.1152E+00  0.9042E+01  0.7333E-02  0.5459E-02  0.1213E-02  0.7367E-03  0.1770E+02  0.1770E+02  0.0000E+00  0.0000E+00  0.0000E+00  0.0000E+00  0.5065E-03  0.1519E-02  0.0000E+00  0.0000E+00  0.0000E+00  0.0000E+00  0.3481E-01  0.1044E+00  0.0000E+00  0.0000E+00  0.0000E+00  0.0000E+00  0.0000E+00  0.0000E+00  0.0000E+00  0.0000E+00  0.0000E+00  0.0000E+00  0.0000E+00  0.0000E+00  0.0000E+00  0.0000E+00  0.0000E+00  0.0000E+00  0.0000E+00
REACH    4        0    12  0.3629E+02  0.2571E-01  0.2539E-01  0.2560E-03  0.1515E-01  0.3622E-03  0.3622E-03  0.1651E+00  0.6053E-02  0.4452E-02  0.9742E-03  0.5846E-03  0.2493E+01  0.2462E+01  0.0000E+00  0.0000E+00  0.0000E+00  0.0000E+00  0.3904E-03  0.1157E-02  0.0000E+00  0.0000E+00  0.0000E+00  0.0000E+00  0.0000E+00  0.6582E-02  0.0000E+00  0.0000E+00  0.0000E+00  0.0000E+00  0.0000E+00  0.0000E+00  0.0000E+00  0.0000E+00  0.0000E+00  0.0000E+00  0.0000E+00  0.0000E+00  0.0000E+00  0.0000E+00  0.0000E+00  0.0000E+00  0.0000E+00
REACH    5        0    12  0.2911E+03  0.1919E+00  0.2006E+00  0.0000E+00  0.1919E+00  0.1156E+00  0.2986E+00  0.1723E+02  0.9915E-02  0.7720E-02  0.1332E-02  0.8463E-03  0.2163E+02  0.2262E+02  0.0000E+00  0.0000E+00  0.0000E+00  0.0000E+00  0.2679E-02  0.8401E-02  0.0000E+00  0.0000E+00  0.0000E+00  0.0000E+00  0.1109E+00  0.3479E+00  0.0000E+00  0.0000E+00  0.0000E+00  0.0000E+00  0.0000E+00  0.0000E+00  0.0000E+00  0.0000E+00  0.0000E+00  0.0000E+00  0.0000E+00  0.0000E+00  0.0000E+00  0.0000E+00  0.0000E+00  0.0000E+00  0.0000E+00
REACH    1        0    13  0.7646E+02  0.6493E-01  0.6721E-01  0.0000E+00  0.6493E-01  0.1050E-06  0.1050E-06  0.1809E-04  0.4631E-05  0.0000E+00  0.1389E-04  0.9936E-05  0.8005E+01  0.8286E+01  0.0000E+00  0.0000E+00  0.0000E+00  0.0000E+00  0.4638E-05  0.0000E+00  0.0000E+00  0.0000E+00  0.0000E+00  0.0000E+00  0.0000E+00  0.1742E-01  0.0000E+00  0.0000E+00  0.0000E+00  0.0000E+00  0.0000E+00  0.0000E+00  0.0000E+00  0.0000E+00  0.0000E+00  0.0000E+00  0.0000E+00  0.0000E+00  0.0000E+00  0.0000E+00  0.0000E+00  0.0000E+00  0.0000E+00
REACH    2        0    13  0.8510E+02  0.5668E-01  0.5883E-01  0.0000E+00  0.5668E-01  0.6167E-08  0.6167E-08  0.1213E-05  0.6357E-05  0.5260E-05  0.1907E-04  0.1368E-04  0.6466E+01  0.6712E+01  0.0000E+00  0.0000E+00  0.0000E+00  0.0000E+00  0.6365E-05  0.1982E-04  0.0000E+00  0.0000E+00  0.0000E+00  0.0000E+00  0.0000E+00  0.1525E-01  0.0000E+00  0.0000E+00  0.0000E+00  0.0000E+00  0.0000E+00  0.0000E+00  0.0000E+00  0.0000E+00  0.0000E+00  0.0000E+00  0.0000E+00  0.0000E+00  0.0000E+00  0.0000E+00  0.0000E+00  0.0000E+00  0.0000E+00
REACH    3        0    13  0.1958E+03  0.1379E+00  0.1413E+00  0.0000E+00  0.1379E+00  0.4113E-03  0.1103E+00  0.9038E+01  0.5983E-02  0.4885E-02  0.9970E-03  0.7055E-03  0.1651E+02  0.1691E+02  0.0000E+00  0.0000E+00  0.0000E+00  0.0000E+00  0.4170E-03  0.1281E-02  0.0000E+00  0.0000E+00  0.0000E+00  0.0000E+00  0.3267E-01  0.1004E+00  0.0000E+00  0.0000E+00  0.0000E+00  0.0000E+00  0.0000E+00  0.0000E+00  0.0000E+00  0.0000E+00  0.0000E+00  0.0000E+00  0.0000E+00  0.0000E+00  0.0000E+00  0.0000E+00  0.0000E+00  0.0000E+00  0.0000E+00
REACH    4        0    13  0.3629E+02  0.2343E-01  0.2306E-01  0.2931E-03  0.1515E-01  0.3068E-03  0.3068E-03  0.1539E+00  0.5126E-02  0.4023E-02  0.8265E-03  0.5622E-03  0.2240E+01  0.2206E+01  0.0000E+00  0.0000E+00  0.0000E+00  0.0000E+00  0.3311E-03  0.9780E-03  0.0000E+00  0.0000E+00  0.0000E+00  0.0000E+00  0.0000E+00  0.5978E-02  0.0000E+00  0.0000E+00  0.0000E+00  0.0000E+00  0.0000E+00  0.0000E+00  0.0000E+00  0.0000E+00  0.0000E+00  0.0000E+00  0.0000E+00  0.0000E+00  0.0000E+00  0.0000E+00  0.0000E+00  0.0000E+00  0.0000E+00
REACH    5        0    13  0.2911E+03  0.1809E+00  0.1877E+00  0.0000E+00  0.1809E+00  0.1106E+00  0.3076E+00  0.1897E+02  0.8912E-02  0.7371E-02  0.1279E-02  0.9165E-03  0.2037E+02  0.2113E+02  0.0000E+00  0.0000E+00  0.0000E+00  0.0000E+00  0.2263E-02  0.7043E-02  0.0000E+00  0.0000E+00  0.0000E+00  0.0000E+00  0.1064E+00  0.3310E+00  0.0000E+00  0.0000E+00  0.0000E+00  0.0000E+00  0.0000E+00  0.0000E+00  0.0000E+00  0.0000E+00  0.0000E+00  0.0000E+00  0.0000E+00  0.0000E+00  0.0000E+00  0.0000E+00  0.0000E+00  0.0000E+00  0.0000E+00
REACH    1        0    14  0.7646E+02  0.6136E-01  0.6345E-01  0.0000E+00  0.6136E-01  0.5390E-07  0.5390E-07  0.9833E-05  0.4631E-05  0.0000E+00  0.1389E-04  0.1034E-04  0.7575E+01  0.7834E+01  0.0000E+00  0.0000E+00  0.0000E+00  0.0000E+00  0.4638E-05  0.0000E+00  0.0000E+00  0.0000E+00  0.0000E+00  0.0000E+00  0.0000E+00  0.1645E-01  0.0000E+00  0.0000E+00  0.0000E+00  0.0000E+00  0.0000E+00  0.0000E+00  0.0000E+00  0.0000E+00  0.0000E+00  0.0000E+00  0.0000E+00  0.0000E+00  0.0000E+00  0.0000E+00  0.0000E+00  0.0000E+00  0.0000E+00
REACH    2        0    14  0.8510E+02  0.5339E-01  0.5533E-01  0.0000E+00  0.5339E-01  0.6167E-08  0.6167E-08  0.1290E-05  0.6357E-05  0.5372E-05  0.1907E-04  0.1422E-04  0.6064E+01  0.6285E+01  0.0000E+00  0.0000E+00  0.0000E+00  0.0000E+00  0.6365E-05  0.1979E-04  0.0000E+00  0.0000E+00  0.0000E+00  0.0000E+00  0.0000E+00  0.1434E-01  0.0000E+00  0.0000E+00  0.0000E+00  0.0000E+00  0.0000E+00  0.0000E+00  0.0000E+00  0.0000E+00  0.0000E+00  0.0000E+00  0.0000E+00  0.0000E+00  0.0000E+00  0.0000E+00  0.0000E+00  0.0000E+00  0.0000E+00
REACH    3        0    14  0.1958E+03  0.1295E+00  0.1338E+00  0.0000E+00  0.1295E+00  0.3352E-03  0.1045E+00  0.9040E+01  0.4879E-02  0.4111E-02  0.8196E-03  0.6095E-03  0.1547E+02  0.1599E+02  0.0000E+00  0.0000E+00  0.0000E+00  0.0000E+00  0.3441E-03  0.1067E-02  0.0000E+00  0.0000E+00  0.0000E+00  0.0000E+00  0.3079E-01  0.9544E-01  0.0000E+00  0.0000E+00  0.0000E+00  0.0000E+00  0.0000E+00  0.0000E+00  0.0000E+00  0.0000E+00  0.0000E+00  0.0000E+00  0.0000E+00  0.0000E+00  0.0000E+00  0.0000E+00  0.0000E+00  0.0000E+00  0.0000E+00
REACH    4        0    14  0.3629E+02  0.2142E-01  0.2118E-01  0.2098E-03  0.1507E-01  0.2598E-03  0.2598E-03  0.1420E+00  0.4342E-02  0.3501E-02  0.7014E-03  0.4992E-03  0.2021E+01  0.1999E+01  0.0000E+00  0.0000E+00  0.0000E+00  0.0000E+00  0.2809E-03  0.8333E-03  0.0000E+00  0.0000E+00  0.0000E+00  0.0000E+00  0.0000E+00  0.5490E-02  0.0000E+00  0.0000E+00  0.0000E+00  0.0000E+00  0.0000E+00  0.0000E+00  0.0000E+00  0.0000E+00  0.0000E+00  0.0000E+00  0.0000E+00  0.0000E+00  0.0000E+00  0.0000E+00  0.0000E+00  0.0000E+00  0.0000E+00
REACH    5        0    14  0.2911E+03  0.1695E+00  0.1759E+00  0.0000E+00  0.1695E+00  0.1048E+00  0.2845E+00  0.1872E+02  0.7615E-02  0.6445E-02  0.1120E-02  0.8363E-03  0.1905E+02  0.1977E+02  0.0000E+00  0.0000E+00  0.0000E+00  0.0000E+00  0.1904E-02  0.5927E-02  0.0000E+00  0.0000E+00  0.0000E+00  0.0000E+00  0.1009E+00  0.3143E+00  0.0000E+00  0.0000E+00  0.0000E+00  0.0000E+00  0.0000E+00  0.0000E+00  0.0000E+00  0.0000E+00  0.0000E+00  0.0000E+00  0.0000E+00  0.0000E+00  0.0000E+00  0.0000E+00  0.0000E+00  0.0000E+00  0.0000E+00
REACH    1        0    15  0.7646E+02  0.5811E-01  0.5995E-01  0.0000E+00  0.5811E-01  0.2877E-07  0.2877E-07  0.5554E-05  0.4631E-05  0.0000E+00  0.1389E-04  0.1028E-04  0.7183E+01  0.7411E+01  0.0000E+00  0.0000E+00  0.0000E+00  0.0000E+00  0.4638E-05  0.0000E+00  0.0000E+00  0.0000E+00  0.0000E+00  0.0000E+00  0.0000E+00  0.1554E-01  0.0000E+00  0.0000E+00  0.0000E+00  0.0000E+00  0.0000E+00  0.0000E+00  0.0000E+00  0.0000E+00  0.0000E+00  0.0000E+00  0.0000E+00  0.0000E+00  0.0000E+00  0.0000E+00  0.0000E+00  0.0000E+00  0.0000E+00
REACH    2        0    15  0.8510E+02  0.5042E-01  0.5210E-01  0.0000E+00  0.5042E-01  0.6167E-08  0.6167E-08  0.1370E-05  0.6357E-05  0.5347E-05  0.1907E-04  0.1414E-04  0.5704E+01  0.5895E+01  0.0000E+00  0.0000E+00  0.0000E+00  0.0000E+00  0.6365E-05  0.1973E-04  0.0000E+00  0.0000E+00  0.0000E+00  0.0000E+00  0.0000E+00  0.1351E-01  0.0000E+00  0.0000E+00  0.0000E+00  0.0000E+00  0.0000E+00  0.0000E+00  0.0000E+00  0.0000E+00  0.0000E+00  0.0000E+00  0.0000E+00  0.0000E+00  0.0000E+00  0.0000E+00  0.0000E+00  0.0000E+00  0.0000E+00
REACH    3        0    15  0.1958E+03  0.1217E+00  0.1261E+00  0.0000E+00  0.1217E+00  0.2733E-03  0.9843E-01  0.9037E+01  0.3979E-02  0.3354E-02  0.6741E-03  0.5009E-03  0.1452E+02  0.1504E+02  0.0000E+00  0.0000E+00  0.0000E+00  0.0000E+00  0.2846E-03  0.8843E-03  0.0000E+00  0.0000E+00  0.0000E+00  0.0000E+00  0.2905E-01  0.9024E-01  0.0000E+00  0.0000E+00  0.0000E+00  0.0000E+00  0.0000E+00  0.0000E+00  0.0000E+00  0.0000E+00  0.0000E+00  0.0000E+00  0.0000E+00  0.0000E+00  0.0000E+00  0.0000E+00  0.0000E+00  0.0000E+00  0.0000E+00
REACH    4        0    15  0.3629E+02  0.1966E-01  0.1934E-01  0.2668E-03  0.1507E-01  0.2200E-03  0.2200E-03  0.1317E+00  0.3677E-02  0.2945E-02  0.5955E-03  0.4203E-03  0.1831E+01  0.1801E+01  0.0000E+00  0.0000E+00  0.0000E+00  0.0000E+00  0.2384E-03  0.7035E-03  0.0000E+00  0.0000E+00  0.0000E+00  0.0000E+00  0.0000E+00  0.5014E-02  0.0000E+00  0.0000E+00  0.0000E+00  0.0000E+00  0.0000E+00  0.0000E+00  0.0000E+00  0.0000E+00  0.0000E+00  0.0000E+00  0.0000E+00  0.0000E+00  0.0000E+00  0.0000E+00  0.0000E+00  0.0000E+00  0.0000E+00
REACH    5        0    15  0.2911E+03  0.1582E+00  0.1643E+00  0.0000E+00  0.1582E+00  0.9865E-01  0.2614E+00  0.1841E+02  0.6302E-02  0.5327E-02  0.9320E-03  0.6943E-03  0.1775E+02  0.1843E+02  0.0000E+00  0.0000E+00  0.0000E+00  0.0000E+00  0.1591E-02  0.4957E-02  0.0000E+00  0.0000E+00  0.0000E+00  0.0000E+00  0.9526E-01  0.2967E+00  0.0000E+00  0.0000E+00  0.0000E+00  0.0000E+00  0.0000E+00  0.0000E+00  0.0000E+00  0.0000E+00  0.0000E+00  0.0000E+00  0.0000E+00  0.0000E+00  0.0000E+00  0.0000E+00  0.0000E+00  0.0000E+00  0.0000E+00
REACH    1        0    16  0.7646E+02  0.5513E-01  0.5679E-01  0.0000E+00  0.5513E-01  0.1641E-07  0.1641E-07  0.3344E-05  0.4631E-05  0.0000E+00  0.1389E-04  0.1028E-04  0.6823E+01  0.7027E+01  0.0000E+00  0.0000E+00  0.0000E+00  0.0000E+00  0.4638E-05  0.0000E+00  0.0000E+00  0.0000E+00  0.0000E+00  0.0000E+00  0.0000E+00  0.1472E-01  0.0000E+00  0.0000E+00  0.0000E+00  0.0000E+00  0.0000E+00  0.0000E+00  0.0000E+00  0.0000E+00  0.0000E+00  0.0000E+00  0.0000E+00  0.0000E+00  0.0000E+00  0.0000E+00  0.0000E+00  0.0000E+00  0.0000E+00
REACH    2        0    16  0.8510E+02  0.4772E-01  0.4921E-01  0.0000E+00  0.4772E-01  0.6167E-08  0.6167E-08  0.1450E-05  0.6357E-05  0.5341E-05  0.1907E-04  0.1414E-04  0.5381E+01  0.5549E+01  0.0000E+00  0.0000E+00  0.0000E+00  0.0000E+00  0.6365E-05  0.1969E-04  0.0000E+00  0.0000E+00  0.0000E+00  0.0000E+00  0.0000E+00  0.1276E-01  0.0000E+00  0.0000E+00  0.0000E+00  0.0000E+00  0.0000E+00  0.0000E+00  0.0000E+00  0.0000E+00  0.0000E+00  0.0000E+00  0.0000E+00  0.0000E+00  0.0000E+00  0.0000E+00  0.0000E+00  0.0000E+00  0.0000E+00
REACH    3        0    16  0.1958E+03  0.1148E+00  0.1188E+00  0.0000E+00  0.1148E+00  0.2227E-03  0.9276E-01  0.9035E+01  0.3245E-02  0.2737E-02  0.5556E-03  0.4134E-03  0.1367E+02  0.1416E+02  0.0000E+00  0.0000E+00  0.0000E+00  0.0000E+00  0.2361E-03  0.7334E-03  0.0000E+00  0.0000E+00  0.0000E+00  0.0000E+00  0.2747E-01  0.8533E-01  0.0000E+00  0.0000E+00  0.0000E+00  0.0000E+00  0.0000E+00  0.0000E+00  0.0000E+00  0.0000E+00  0.0000E+00  0.0000E+00  0.0000E+00  0.0000E+00  0.0000E+00  0.0000E+00  0.0000E+00  0.0000E+00  0.0000E+00
REACH    4        0    16  0.3629E+02  0.1811E-01  0.1780E-01  0.2544E-03  0.1507E-01  0.1863E-03  0.1863E-03  0.1212E+00  0.3115E-02  0.2494E-02  0.5058E-03  0.3573E-03  0.1665E+01  0.1637E+01  0.0000E+00  0.0000E+00  0.0000E+00  0.0000E+00  0.2024E-03  0.5966E-03  0.0000E+00  0.0000E+00  0.0000E+00  0.0000E+00  0.0000E+00  0.4613E-02  0.0000E+00  0.0000E+00  0.0000E+00  0.0000E+00  0.0000E+00  0.0000E+00  0.0000E+00  0.0000E+00  0.0000E+00  0.0000E+00  0.0000E+00  0.0000E+00  0.0000E+00  0.0000E+00  0.0000E+00  0.0000E+00  0.0000E+00
REACH    5        0    16  0.2911E+03  0.1480E+00  0.1536E+00  0.0000E+00  0.1480E+00  0.9295E-01  0.2401E+00  0.1809E+02  0.5235E-02  0.4426E-02  0.7815E-03  0.5828E-03  0.1657E+02  0.1719E+02  0.0000E+00  0.0000E+00  0.0000E+00  0.0000E+00  0.1334E-02  0.4151E-02  0.0000E+00  0.0000E+00  0.0000E+00  0.0000E+00  0.8995E-01  0.2799E+00  0.0000E+00  0.0000E+00  0.0000E+00  0.0000E+00  0.0000E+00  0.0000E+00  0.0000E+00  0.0000E+00  0.0000E+00  0.0000E+00  0.0000E+00  0.0000E+00  0.0000E+00  0.0000E+00  0.0000E+00  0.0000E+00  0.0000E+00
REACH    1        0    17  0.7646E+02  0.5240E-01  0.5394E-01  0.0000E+00  0.5240E-01  0.1032E-07  0.1032E-07  0.2214E-05  0.4631E-05  0.0000E+00  0.1389E-04  0.1044E-04  0.6490E+01  0.6682E+01  0.0000E+00  0.0000E+00  0.0000E+00  0.0000E+00  0.4638E-05  0.1433E-04  0.0000E+00  0.0000E+00  0.0000E+00  0.0000E+00  0.0000E+00  0.1398E-01  0.0000E+00  0.0000E+00  0.0000E+00  0.0000E+00  0.0000E+00  0.0000E+00  0.0000E+00  0.0000E+00  0.0000E+00  0.0000E+00  0.0000E+00  0.0000E+00  0.0000E+00  0.0000E+00  0.0000E+00  0.0000E+00  0.0000E+00
REACH    2        0    17  0.8510E+02  0.4526E-01  0.4664E-01  0.0000E+00  0.4526E-01  0.6167E-08  0.6167E-08  0.1530E-05  0.6357E-05  0.5384E-05  0.1907E-04  0.1434E-04  0.5089E+01  0.5244E+01  0.0000E+00  0.0000E+00  0.0000E+00  0.0000E+00  0.6365E-05  0.1968E-04  0.0000E+00  0.0000E+00  0.0000E+00  0.0000E+00  0.0000E+00  0.1209E-01  0.0000E+00  0.0000E+00  0.0000E+00  0.0000E+00  0.0000E+00  0.0000E+00  0.0000E+00  0.0000E+00  0.0000E+00  0.0000E+00  0.0000E+00  0.0000E+00  0.0000E+00  0.0000E+00  0.0000E+00  0.0000E+00  0.0000E+00
REACH    3        0    17  0.1958E+03  0.1086E+00  0.1123E+00  0.0000E+00  0.1086E+00  0.1816E-03  0.8768E-01  0.9033E+01  0.2647E-02  0.2250E-02  0.4593E-03  0.3468E-03  0.1292E+02  0.1336E+02  0.0000E+00  0.0000E+00  0.0000E+00  0.0000E+00  0.2110E-03  0.6547E-03  0.0000E+00  0.0000E+00  0.0000E+00  0.0000E+00  0.2607E-01  0.8090E-01  0.0000E+00  0.0000E+00  0.0000E+00  0.0000E+00  0.0000E+00  0.0000E+00  0.0000E+00  0.0000E+00  0.0000E+00  0.0000E+00  0.0000E+00  0.0000E+00  0.0000E+00  0.0000E+00  0.0000E+00  0.0000E+00  0.0000E+00
REACH    4        0    17  0.3629E+02  0.1674E-01  0.1650E-01  0.1855E-03  0.1507E-01  0.1578E-03  0.1578E-03  0.1107E+00  0.2638E-02  0.2138E-02  0.4298E-03  0.3092E-03  0.1521E+01  0.1499E+01  0.0000E+00  0.0000E+00  0.0000E+00  0.0000E+00  0.1719E-03  0.5083E-03  0.0000E+00  0.0000E+00  0.0000E+00  0.0000E+00  0.0000E+00  0.4277E-02  0.0000E+00  0.0000E+00  0.0000E+00  0.0000E+00  0.0000E+00  0.0000E+00  0.0000E+00  0.0000E+00  0.0000E+00  0.0000E+00  0.0000E+00  0.0000E+00  0.0000E+00  0.0000E+00  0.0000E+00  0.0000E+00  0.0000E+00
REACH    5        0    17  0.2911E+03  0.1390E+00  0.1441E+00  0.0000E+00  0.1390E+00  0.8784E-01  0.2212E+00  0.1777E+02  0.4391E-02  0.3741E-02  0.6668E-03  0.5045E-03  0.1554E+02  0.1610E+02  0.0000E+00  0.0000E+00  0.0000E+00  0.0000E+00  0.1167E-02  0.3628E-02  0.0000E+00  0.0000E+00  0.0000E+00  0.0000E+00  0.8518E-01  0.2649E+00  0.0000E+00  0.0000E+00  0.0000E+00  0.0000E+00  0.0000E+00  0.0000E+00  0.0000E+00  0.0000E+00  0.0000E+00  0.0000E+00  0.0000E+00  0.0000E+00  0.0000E+00  0.0000E+00  0.0000E+00  0.0000E+00  0.0000E+00
REACH    1        0    18  0.7646E+02  0.4987E-01  0.5128E-01  0.0000E+00  0.4987E-01  0.7328E-08  0.7328E-08  0.1654E-05  0.4631E-05  0.0000E+00  0.1389E-04  0.1033E-04  0.6182E+01  0.6356E+01  0.0000E+00  0.0000E+00  0.0000E+00  0.0000E+00  0.4638E-05  0.1431E-04  0.0000E+00  0.0000E+00  0.0000E+00  0.0000E+00  0.0000E+00  0.1329E-01  0.0000E+00  0.0000E+00  0.0000E+00  0.0000E+00  0.0000E+00  0.0000E+00  0.0000E+00  0.0000E+00  0.0000E+00  0.0000E+00  0.0000E+00  0.0000E+00  0.0000E+00  0.0000E+00  0.0000E+00  0.0000E+00  0.0000E+00
REACH    2        0    18  0.8510E+02  0.4299E-01  0.4424E-01  0.0000E+00  0.4299E-01  0.6167E-08  0.6167E-08  0.1613E-05  0.6357E-05  0.5349E-05  0.1907E-04  0.1419E-04  0.4822E+01  0.4962E+01  0.0000E+00  0.0000E+00  0.0000E+00  0.0000E+00  0.6365E-05  0.1965E-04  0.0000E+00  0.0000E+00  0.0000E+00  0.0000E+00  0.0000E+00  0.1147E-01  0.0000E+00  0.0000E+00  0.0000E+00  0.0000E+00  0.0000E+00  0.0000E+00  0.0000E+00  0.0000E+00  0.0000E+00  0.0000E+00  0.0000E+00  0.0000E+00  0.0000E+00  0.0000E+00  0.0000E+00  0.0000E+00  0.0000E+00
REACH    3        0    18  0.1958E+03  0.1029E+00  0.1063E+00  0.0000E+00  0.1029E+00  0.1480E-03  0.8294E-01  0.9031E+01  0.2159E-02  0.1824E-02  0.3803E-03  0.2842E-03  0.1222E+02  0.1263E+02  0.0000E+00  0.0000E+00  0.0000E+00  0.0000E+00  0.1787E-03  0.5540E-03  0.0000E+00  0.0000E+00  0.0000E+00  0.0000E+00  0.2476E-01  0.7674E-01  0.0000E+00  0.0000E+00  0.0000E+00  0.0000E+00  0.0000E+00  0.0000E+00  0.0000E+00  0.0000E+00  0.0000E+00  0.0000E+00  0.0000E+00  0.0000E+00  0.0000E+00  0.0000E+00  0.0000E+00  0.0000E+00  0.0000E+00
REACH    4        0    18  0.3629E+02  0.1552E-01  0.1527E-01  0.2016E-03  0.1507E-01  0.1336E-03  0.1336E-03  0.1013E+00  0.2235E-02  0.1798E-02  0.3654E-03  0.2600E-03  0.1394E+01  0.1371E+01  0.0000E+00  0.0000E+00  0.0000E+00  0.0000E+00  0.1460E-03  0.4310E-03  0.0000E+00  0.0000E+00  0.0000E+00  0.0000E+00  0.0000E+00  0.3958E-02  0.0000E+00  0.0000E+00  0.0000E+00  0.0000E+00  0.0000E+00  0.0000E+00  0.0000E+00  0.0000E+00  0.0000E+00  0.0000E+00  0.0000E+00  0.0000E+00  0.0000E+00  0.0000E+00  0.0000E+00  0.0000E+00  0.0000E+00
REACH    5        0    18  0.2911E+03  0.1307E+00  0.1353E+00  0.0000E+00  0.1307E+00  0.8308E-01  0.2037E+00  0.1742E+02  0.3625E-02  0.3068E-02  0.5551E-03  0.4156E-03  0.1458E+02  0.1510E+02  0.0000E+00  0.0000E+00  0.0000E+00  0.0000E+00  0.9886E-03  0.3070E-02  0.0000E+00  0.0000E+00  0.0000E+00  0.0000E+00  0.8070E-01  0.2506E+00  0.0000E+00  0.0000E+00  0.0000E+00  0.0000E+00  0.0000E+00  0.0000E+00  0.0000E+00  0.0000E+00  0.0000E+00  0.0000E+00  0.0000E+00  0.0000E+00  0.0000E+00  0.0000E+00  0.0000E+00  0.0000E+00  0.0000E+00
REACH    1        0    19  0.7646E+02  0.4751E-01  0.4869E-01  0.0000E+00  0.4751E-01  0.5855E-08  0.5855E-08  0.1392E-05  0.4631E-05  0.0000E+00  0.1389E-04  0.1001E-04  0.5894E+01  0.6040E+01  0.0000E+00  0.0000E+00  0.0000E+00  0.0000E+00  0.4638E-05  0.1426E-04  0.0000E+00  0.0000E+00  0.0000E+00  0.0000E+00  0.0000E+00  0.1262E-01  0.0000E+00  0.0000E+00  0.0000E+00  0.0000E+00  0.0000E+00  0.0000E+00  0.0000E+00  0.0000E+00  0.0000E+00  0.0000E+00  0.0000E+00  0.0000E+00  0.0000E+00  0.0000E+00  0.0000E+00  0.0000E+00  0.0000E+00
REACH    2        0    19  0.8510E+02  0.4090E-01  0.4192E-01  0.0000E+00  0.4090E-01  0.6167E-08  0.6167E-08  0.1702E-05  0.6357E-05  0.5245E-05  0.1907E-04  0.1374E-04  0.4577E+01  0.4692E+01  0.0000E+00  0.0000E+00  0.0000E+00  0.0000E+00  0.6365E-05  0.1957E-04  0.0000E+00  0.0000E+00  0.0000E+00  0.0000E+00  0.0000E+00  0.1087E-01  0.0000E+00  0.0000E+00  0.0000E+00  0.0000E+00  0.0000E+00  0.0000E+00  0.0000E+00  0.0000E+00  0.0000E+00  0.0000E+00  0.0000E+00  0.0000E+00  0.0000E+00  0.0000E+00  0.0000E+00  0.0000E+00  0.0000E+00
REACH    3        0    19  0.1958E+03  0.9742E-01  0.1004E+00  0.0000E+00  0.9742E-01  0.1207E-03  0.7836E-01  0.9029E+01  0.1761E-02  0.1462E-02  0.3154E-03  0.2286E-03  0.1156E+02  0.1192E+02  0.0000E+00  0.0000E+00  0.0000E+00  0.0000E+00  0.1524E-03  0.4713E-03  0.0000E+00  0.0000E+00  0.0000E+00  0.0000E+00  0.2349E-01  0.7265E-01  0.0000E+00  0.0000E+00  0.0000E+00  0.0000E+00  0.0000E+00  0.0000E+00  0.0000E+00  0.0000E+00  0.0000E+00  0.0000E+00  0.0000E+00  0.0000E+00  0.0000E+00  0.0000E+00  0.0000E+00  0.0000E+00  0.0000E+00
REACH    4        0    19  0.3629E+02  0.1444E-01  0.1462E-01  0.0000E+00  0.1444E-01  0.1132E-03  0.1132E-03  0.8962E-01  0.1893E-02  0.1543E-02  0.3110E-03  0.2213E-03  0.1282E+01  0.1298E+01  0.0000E+00  0.0000E+00  0.0000E+00  0.0000E+00  0.1242E-03  0.3771E-03  0.0000E+00  0.0000E+00  0.0000E+00  0.0000E+00  0.0000E+00  0.3788E-02  0.0000E+00  0.0000E+00  0.0000E+00  0.0000E+00  0.0000E+00  0.0000E+00  0.0000E+00  0.0000E+00  0.0000E+00  0.0000E+00  0.0000E+00  0.0000E+00  0.0000E+00  0.0000E+00  0.0000E+00  0.0000E+00  0.0000E+00
REACH    5        0    19  0.2911E+03  0.1233E+00  0.1270E+00  0.0000E+00  0.1233E+00  0.7847E-01  0.1873E+00  0.1707E+02  0.3008E-02  0.2493E-02  0.4608E-03  0.3336E-03  0.1373E+02  0.1413E+02  0.0000E+00  0.0000E+00  0.0000E+00  0.0000E+00  0.8521E-03  0.2632E-02  0.0000E+00  0.0000E+00  0.0000E+00  0.0000E+00  0.7644E-01  0.2361E+00  0.0000E+00  0.0000E+00  0.0000E+00  0.0000E+00  0.0000E+00  0.0000E+00  0.0000E+00  0.0000E+00  0.0000E+00  0.0000E+00  0.0000E+00  0.0000E+00  0.0000E+00  0.0000E+00  0.0000E+00  0.0000E+00  0.0000E+00
REACH    1        0    20  0.7646E+02  0.4532E-01  0.4630E-01  0.0000E+00  0.4532E-01  0.5130E-08  0.5130E-08  0.1282E-05  0.4631E-05  0.0000E+00  0.1389E-04  0.8956E-05  0.5625E+01  0.5747E+01  0.0000E+00  0.0000E+00  0.0000E+00  0.0000E+00  0.4638E-05  0.1422E-04  0.0000E+00  0.0000E+00  0.0000E+00  0.0000E+00  0.0000E+00  0.1200E-01  0.0000E+00  0.0000E+00  0.0000E+00  0.0000E+00  0.0000E+00  0.0000E+00  0.0000E+00  0.0000E+00  0.0000E+00  0.0000E+00  0.0000E+00  0.0000E+00  0.0000E+00  0.0000E+00  0.0000E+00  0.0000E+00  0.0000E+00
REACH    2        0    20  0.8510E+02  0.3896E-01  0.3979E-01  0.0000E+00  0.3896E-01  0.6167E-08  0.6167E-08  0.1794E-05  0.6357E-05  0.4931E-05  0.1907E-04  0.1229E-04  0.4352E+01  0.4445E+01  0.0000E+00  0.0000E+00  0.0000E+00  0.0000E+00  0.6365E-05  0.1950E-04  0.0000E+00  0.0000E+00  0.0000E+00  0.0000E+00  0.0000E+00  0.1031E-01  0.0000E+00  0.0000E+00  0.0000E+00  0.0000E+00  0.0000E+00  0.0000E+00  0.0000E+00  0.0000E+00  0.0000E+00  0.0000E+00  0.0000E+00  0.0000E+00  0.0000E+00  0.0000E+00  0.0000E+00  0.0000E+00  0.0000E+00
REACH    3        0    20  0.1958E+03  0.9239E-01  0.9501E-01  0.0000E+00  0.9239E-01  0.9837E-04  0.7411E-01  0.9028E+01  0.1437E-02  0.1122E-02  0.2605E-03  0.1691E-03  0.1095E+02  0.1126E+02  0.0000E+00  0.0000E+00  0.0000E+00  0.0000E+00  0.1309E-03  0.4038E-03  0.0000E+00  0.0000E+00  0.0000E+00  0.0000E+00  0.2231E-01  0.6885E-01  0.0000E+00  0.0000E+00  0.0000E+00  0.0000E+00  0.0000E+00  0.0000E+00  0.0000E+00  0.0000E+00  0.0000E+00  0.0000E+00  0.0000E+00  0.0000E+00  0.0000E+00  0.0000E+00  0.0000E+00  0.0000E+00  0.0000E+00
REACH    4        0    20  0.3629E+02  0.1347E-01  0.1386E-01  0.0000E+00  0.1347E-01  0.9585E-04  0.9585E-04  0.8005E-01  0.1604E-02  0.1254E-02  0.2648E-03  0.1720E-03  0.1184E+01  0.1218E+01  0.0000E+00  0.0000E+00  0.0000E+00  0.0000E+00  0.1056E-03  0.3262E-03  0.0000E+00  0.0000E+00  0.0000E+00  0.0000E+00  0.0000E+00  0.3592E-02  0.0000E+00  0.0000E+00  0.0000E+00  0.0000E+00  0.0000E+00  0.0000E+00  0.0000E+00  0.0000E+00  0.0000E+00  0.0000E+00  0.0000E+00  0.0000E+00  0.0000E+00  0.0000E+00  0.0000E+00  0.0000E+00  0.0000E+00
REACH    5        0    20  0.2911E+03  0.1164E+00  0.1194E+00  0.0000E+00  0.1164E+00  0.7421E-01  0.1721E+00  0.1669E+02  0.2379E-02  0.1853E-02  0.3519E-03  0.2277E-03  0.1293E+02  0.1326E+02  0.0000E+00  0.0000E+00  0.0000E+00  0.0000E+00  0.7336E-03  0.2256E-02  0.0000E+00  0.0000E+00  0.0000E+00  0.0000E+00  0.7244E-01  0.2228E+00  0.0000E+00  0.0000E+00  0.0000E+00  0.0000E+00  0.0000E+00  0.0000E+00  0.0000E+00  0.0000E+00  0.0000E+00  0.0000E+00  0.0000E+00  0.0000E+00  0.0000E+00  0.0000E+00  0.0000E+00  0.0000E+00  0.0000E+00
REACH    1        0    21  0.7646E+02  0.4326E-01  0.4422E-01  0.0000E+00  0.4326E-01  0.4936E-08  0.4936E-08  0.1292E-05  0.4631E-05  0.0000E+00  0.1389E-04  0.9645E-05  0.5372E+01  0.5491E+01  0.0000E+00  0.0000E+00  0.0000E+00  0.0000E+00  0.4638E-05  0.1422E-04  0.0000E+00  0.0000E+00  0.0000E+00  0.0000E+00  0.0000E+00  0.1146E-01  0.0000E+00  0.0000E+00  0.0000E+00  0.0000E+00  0.0000E+00  0.0000E+00  0.0000E+00  0.0000E+00  0.0000E+00  0.0000E+00  0.0000E+00  0.0000E+00  0.0000E+00  0.0000E+00  0.0000E+00  0.0000E+00  0.0000E+00
REACH    2        0    21  0.8510E+02  0.3715E-01  0.3796E-01  0.0000E+00  0.3715E-01  0.6167E-08  0.6167E-08  0.1880E-05  0.6357E-05  0.5131E-05  0.1907E-04  0.1324E-04  0.4143E+01  0.4234E+01  0.0000E+00  0.0000E+00  0.0000E+00  0.0000E+00  0.6365E-05  0.1951E-04  0.0000E+00  0.0000E+00  0.0000E+00  0.0000E+00  0.0000E+00  0.9839E-02  0.0000E+00  0.0000E+00  0.0000E+00  0.0000E+00  0.0000E+00  0.0000E+00  0.0000E+00  0.0000E+00  0.0000E+00  0.0000E+00  0.0000E+00  0.0000E+00  0.0000E+00  0.0000E+00  0.0000E+00  0.0000E+00  0.0000E+00
REACH    3        0    21  0.1958E+03  0.8803E-01  0.9040E-01  0.0000E+00  0.8803E-01  0.8019E-04  0.7051E-01  0.9027E+01  0.1173E-02  0.9514E-03  0.2195E-03  0.1531E-03  0.1042E+02  0.1070E+02  0.0000E+00  0.0000E+00  0.0000E+00  0.0000E+00  0.1135E-03  0.3496E-03  0.0000E+00  0.0000E+00  0.0000E+00  0.0000E+00  0.2130E-01  0.6562E-01  0.0000E+00  0.0000E+00  0.0000E+00  0.0000E+00  0.0000E+00  0.0000E+00  0.0000E+00  0.0000E+00  0.0000E+00  0.0000E+00  0.0000E+00  0.0000E+00  0.0000E+00  0.0000E+00  0.0000E+00  0.0000E+00  0.0000E+00
REACH    4        0    21  0.3629E+02  0.1260E-01  0.1305E-01  0.0000E+00  0.1260E-01  0.8117E-04  0.8117E-04  0.7198E-01  0.1359E-02  0.1112E-02  0.2257E-03  0.1589E-03  0.1096E+01  0.1136E+01  0.0000E+00  0.0000E+00  0.0000E+00  0.0000E+00  0.8996E-04  0.2796E-03  0.0000E+00  0.0000E+00  0.0000E+00  0.0000E+00  0.0000E+00  0.3383E-02  0.0000E+00  0.0000E+00  0.0000E+00  0.0000E+00  0.0000E+00  0.0000E+00  0.0000E+00  0.0000E+00  0.0000E+00  0.0000E+00  0.0000E+00  0.0000E+00  0.0000E+00  0.0000E+00  0.0000E+00  0.0000E+00  0.0000E+00
REACH    5        0    21  0.2911E+03  0.1104E+00  0.1131E+00  0.0000E+00  0.1104E+00  0.7059E-01  0.1594E+00  0.1631E+02  0.2067E-02  0.1673E-02  0.3228E-03  0.2247E-03  0.1224E+02  0.1254E+02  0.0000E+00  0.0000E+00  0.0000E+00  0.0000E+00  0.6328E-03  0.1945E-02  0.0000E+00  0.0000E+00  0.0000E+00  0.0000E+00  0.6901E-01  0.2121E+00  0.0000E+00  0.0000E+00  0.0000E+00  0.0000E+00  0.0000E+00  0.0000E+00  0.0000E+00  0.0000E+00  0.0000E+00  0.0000E+00  0.0000E+00  0.0000E+00  0.0000E+00  0.0000E+00  0.0000E+00  0.0000E+00  0.0000E+00
REACH    1        0    22  0.7646E+02  0.4133E-01  0.4225E-01  0.0000E+00  0.4133E-01  0.4936E-08  0.4936E-08  0.1352E-05  0.4631E-05  0.3712E-05  0.1389E-04  0.9520E-05  0.5134E+01  0.5248E+01  0.0000E+00  0.0000E+00  0.0000E+00  0.0000E+00  0.4638E-05  0.1422E-04  0.0000E+00  0.0000E+00  0.0000E+00  0.0000E+00  0.0000E+00  0.1095E-01  0.0000E+00  0.0000E+00  0.0000E+00  0.0000E+00  0.0000E+00  0.0000E+00  0.0000E+00  0.0000E+00  0.0000E+00  0.0000E+00  0.0000E+00  0.0000E+00  0.0000E+00  0.0000E+00  0.0000E+00  0.0000E+00  0.0000E+00
REACH    2        0    22  0.8510E+02  0.3545E-01  0.3623E-01  0.0000E+00  0.3545E-01  0.6167E-08  0.6167E-08  0.1970E-05  0.6357E-05  0.5094E-05  0.1907E-04  0.1306E-04  0.3949E+01  0.4035E+01  0.0000E+00  0.0000E+00  0.0000E+00  0.0000E+00  0.6365E-05  0.1951E-04  0.0000E+00  0.0000E+00  0.0000E+00  0.0000E+00  0.0000E+00  0.9390E-02  0.0000E+00  0.0000E+00  0.0000E+00  0.0000E+00  0.0000E+00  0.0000E+00  0.0000E+00  0.0000E+00  0.0000E+00  0.0000E+00  0.0000E+00  0.0000E+00  0.0000E+00  0.0000E+00  0.0000E+00  0.0000E+00  0.0000E+00
REACH    3        0    22  0.1958E+03  0.8393E-01  0.8613E-01  0.0000E+00  0.8393E-01  0.6537E-04  0.6717E-01  0.9026E+01  0.9613E-03  0.7737E-03  0.1844E-03  0.1269E-03  0.9930E+01  0.1019E+02  0.0000E+00  0.0000E+00  0.0000E+00  0.0000E+00  0.9925E-04  0.3056E-03  0.0000E+00  0.0000E+00  0.0000E+00  0.0000E+00  0.2034E-01  0.6262E-01  0.0000E+00  0.0000E+00  0.0000E+00  0.0000E+00  0.0000E+00  0.0000E+00  0.0000E+00  0.0000E+00  0.0000E+00  0.0000E+00  0.0000E+00  0.0000E+00  0.0000E+00  0.0000E+00  0.0000E+00  0.0000E+00  0.0000E+00
REACH    4        0    22  0.3629E+02  0.1181E-01  0.1226E-01  0.0000E+00  0.1181E-01  0.6874E-04  0.6874E-04  0.6489E-01  0.1151E-02  0.9371E-03  0.1926E-03  0.1340E-03  0.1019E+01  0.1058E+01  0.0000E+00  0.0000E+00  0.0000E+00  0.0000E+00  0.7667E-04  0.2387E-03  0.0000E+00  0.0000E+00  0.0000E+00  0.0000E+00  0.0000E+00  0.3178E-02  0.0000E+00  0.0000E+00  0.0000E+00  0.0000E+00  0.0000E+00  0.0000E+00  0.0000E+00  0.0000E+00  0.0000E+00  0.0000E+00  0.0000E+00  0.0000E+00  0.0000E+00  0.0000E+00  0.0000E+00  0.0000E+00  0.0000E+00
REACH    5        0    22  0.2911E+03  0.1048E+00  0.1073E+00  0.0000E+00  0.1048E+00  0.6724E-01  0.1435E+00  0.1548E+02  0.1714E-02  0.1377E-02  0.2718E-03  0.1865E-03  0.1160E+02  0.1188E+02  0.0000E+00  0.0000E+00  0.0000E+00  0.0000E+00  0.5479E-03  0.1683E-02  0.0000E+00  0.0000E+00  0.0000E+00  0.0000E+00  0.6580E-01  0.2021E+00  0.0000E+00  0.0000E+00  0.0000E+00  0.0000E+00  0.0000E+00  0.0000E+00  0.0000E+00  0.0000E+00  0.0000E+00  0.0000E+00  0.0000E+00  0.0000E+00  0.0000E+00  0.0000E+00  0.0000E+00  0.0000E+00  0.0000E+00
REACH    1        0    23  0.7646E+02  0.3951E-01  0.4025E-01  0.0000E+00  0.3951E-01  0.4936E-08  0.4936E-08  0.1419E-05  0.4631E-05  0.3690E-05  0.1389E-04  0.9443E-05  0.4910E+01  0.5002E+01  0.0000E+00  0.0000E+00  0.0000E+00  0.0000E+00  0.4638E-05  0.1418E-04  0.0000E+00  0.0000E+00  0.0000E+00  0.0000E+00  0.0000E+00  0.1043E-01  0.0000E+00  0.0000E+00  0.0000E+00  0.0000E+00  0.0000E+00  0.0000E+00  0.0000E+00  0.0000E+00  0.0000E+00  0.0000E+00  0.0000E+00  0.0000E+00  0.0000E+00  0.0000E+00  0.0000E+00  0.0000E+00  0.0000E+00
REACH    2        0    23  0.8510E+02  0.3386E-01  0.3447E-01  0.0000E+00  0.3386E-01  0.6167E-08  0.6167E-08  0.2071E-05  0.6357E-05  0.5062E-05  0.1907E-04  0.1295E-04  0.3767E+01  0.3835E+01  0.0000E+00  0.0000E+00  0.0000E+00  0.0000E+00  0.6365E-05  0.1944E-04  0.0000E+00  0.0000E+00  0.0000E+00  0.0000E+00  0.0000E+00  0.8935E-02  0.0000E+00  0.0000E+00  0.0000E+00  0.0000E+00  0.0000E+00  0.0000E+00  0.0000E+00  0.0000E+00  0.0000E+00  0.0000E+00  0.0000E+00  0.0000E+00  0.0000E+00  0.0000E+00  0.0000E+00  0.0000E+00  0.0000E+00
REACH    3        0    23  0.1958E+03  0.7983E-01  0.8179E-01  0.0000E+00  0.7983E-01  0.5329E-04  0.6378E-01  0.9025E+01  0.7857E-03  0.6297E-03  0.1559E-03  0.1066E-03  0.9437E+01  0.9668E+01  0.0000E+00  0.0000E+00  0.0000E+00  0.0000E+00  0.8755E-04  0.2691E-03  0.0000E+00  0.0000E+00  0.0000E+00  0.0000E+00  0.1937E-01  0.5953E-01  0.0000E+00  0.0000E+00  0.0000E+00  0.0000E+00  0.0000E+00  0.0000E+00  0.0000E+00  0.0000E+00  0.0000E+00  0.0000E+00  0.0000E+00  0.0000E+00  0.0000E+00  0.0000E+00  0.0000E+00  0.0000E+00  0.0000E+00
REACH    4        0    23  0.3629E+02  0.1111E-01  0.1150E-01  0.0000E+00  0.1111E-01  0.5822E-04  0.5822E-04  0.5858E-01  0.9754E-03  0.7903E-03  0.1646E-03  0.1138E-03  0.9501E+00  0.9840E+00  0.0000E+00  0.0000E+00  0.0000E+00  0.0000E+00  0.6542E-04  0.2033E-03  0.0000E+00  0.0000E+00  0.0000E+00  0.0000E+00  0.0000E+00  0.2981E-02  0.0000E+00  0.0000E+00  0.0000E+00  0.0000E+00  0.0000E+00  0.0000E+00  0.0000E+00  0.0000E+00  0.0000E+00  0.0000E+00  0.0000E+00  0.0000E+00  0.0000E+00  0.0000E+00  0.0000E+00  0.0000E+00  0.0000E+00
REACH    5        0    23  0.2911E+03  0.9916E-01  0.1012E+00  0.0000E+00  0.9916E-01  0.6383E-01  0.1281E+00  0.1466E+02  0.1424E-02  0.1136E-02  0.2312E-03  0.1574E-03  0.1097E+02  0.1119E+02  0.0000E+00  0.0000E+00  0.0000E+00  0.0000E+00  0.4760E-03  0.1457E-02  0.0000E+00  0.0000E+00  0.0000E+00  0.0000E+00  0.6251E-01  0.1913E+00  0.0000E+00  0.0000E+00  0.0000E+00  0.0000E+00  0.0000E+00  0.0000E+00  0.0000E+00  0.0000E+00  0.0000E+00  0.0000E+00  0.0000E+00  0.0000E+00  0.0000E+00  0.0000E+00  0.0000E+00  0.0000E+00  0.0000E+00
REACH    1        0    24  0.7646E+02  0.4467E-01  0.4273E-01  0.0000E+00  0.4467E-01  0.7399E-01  0.7399E-01  0.2004E+02  0.7558E+00  0.6714E+00  0.1483E+00  0.1174E+00  0.1514E+02  0.1441E+02  0.0000E+00  0.0000E+00  0.0000E+00  0.0000E+00  0.5272E-01  0.7644E-01  0.2618E+00  0.0000E+00  0.0000E+00  0.0000E+00  0.1728E+01  0.4957E+01  0.0000E+00  0.0000E+00  0.0000E+00  0.0000E+00  0.0000E+00  0.0000E+00  0.0000E+00  0.0000E+00  0.0000E+00  0.0000E+00  0.0000E+00  0.0000E+00  0.0000E+00  0.0000E+00  0.0000E+00  0.0000E+00  0.0000E+00
REACH    2        0    24  0.8510E+02  0.3236E-01  0.3294E-01  0.0000E+00  0.3236E-01  0.6167E-08  0.6167E-08  0.2167E-05  0.6357E-05  0.5268E-05  0.1907E-04  0.1393E-04  0.3597E+01  0.3661E+01  0.0000E+00  0.0000E+00  0.0000E+00  0.0000E+00  0.6365E-05  0.1944E-04  0.0000E+00  0.0000E+00  0.0000E+00  0.0000E+00  0.0000E+00  0.8538E-02  0.0000E+00  0.0000E+00  0.0000E+00  0.0000E+00  0.0000E+00  0.0000E+00  0.0000E+00  0.0000E+00  0.0000E+00  0.0000E+00  0.0000E+00  0.0000E+00  0.0000E+00  0.0000E+00  0.0000E+00  0.0000E+00  0.0000E+00
REACH    3        0    24  0.1958E+03  0.8046E-01  0.8059E-01  0.0000E+00  0.8046E-01  0.7404E-01  0.9311E-01  0.1337E+02  0.6720E+00  0.5481E+00  0.1175E+00  0.8447E-01  0.1863E+02  0.1866E+02  0.0000E+00  0.0000E+00  0.0000E+00  0.0000E+00  0.7650E-01  0.1147E+00  0.0000E+00  0.0000E+00  0.0000E+00  0.0000E+00  0.4966E+01  0.1492E+02  0.0000E+00  0.0000E+00  0.0000E+00  0.0000E+00  0.0000E+00  0.0000E+00  0.0000E+00  0.0000E+00  0.0000E+00  0.0000E+00  0.0000E+00  0.0000E+00  0.0000E+00  0.0000E+00  0.0000E+00  0.0000E+00  0.0000E+00
REACH    4        0    24  0.3629E+02  0.1046E-01  0.1083E-01  0.0000E+00  0.1046E-01  0.4931E-04  0.4931E-04  0.5271E-01  0.8265E-03  0.6964E-03  0.1409E-03  0.1046E-03  0.8884E+00  0.9192E+00  0.0000E+00  0.0000E+00  0.0000E+00  0.0000E+00  0.5589E-04  0.1735E-03  0.0000E+00  0.0000E+00  0.0000E+00  0.0000E+00  0.0000E+00  0.2806E-02  0.0000E+00  0.0000E+00  0.0000E+00  0.0000E+00  0.0000E+00  0.0000E+00  0.0000E+00  0.0000E+00  0.0000E+00  0.0000E+00  0.0000E+00  0.0000E+00  0.0000E+00  0.0000E+00  0.0000E+00  0.0000E+00  0.0000E+00
REACH    5        0    24  0.2911E+03  0.9687E-01  0.9765E-01  0.0000E+00  0.9687E-01  0.9316E-01  0.1208E+00  0.1432E+02  0.5488E+00  0.4505E+00  0.8459E-01  0.6122E-01  0.1986E+02  0.2003E+02  0.0000E+00  0.0000E+00  0.0000E+00  0.0000E+00  0.1149E+00  0.1481E+00  0.0000E+00  0.0000E+00  0.0000E+00  0.0000E+00  0.1492E+02  0.4513E+02  0.0000E+00  0.0000E+00  0.0000E+00  0.0000E+00  0.0000E+00  0.0000E+00  0.0000E+00  0.0000E+00  0.0000E+00  0.0000E+00  0.0000E+00  0.0000E+00  0.0000E+00  0.0000E+00  0.0000E+00  0.0000E+00  0.0000E+00
REACH    1        0    25  0.7646E+02  0.9254E-01  0.7285E-01  0.0000E+00  0.9254E-01  0.1801E+01  0.1801E+01  0.2861E+03  0.5119E+01  0.1108E+02  0.8286E+00  0.1936E+01  0.2438E+02  0.1320E+02  0.0000E+00  0.0000E+00  0.0000E+00  0.0000E+00  0.9104E-01  0.0000E+00  0.3331E+02  0.0000E+00  0.4115E+03  0.0000E+00  0.1444E+02  0.3409E+02  0.0000E+00  0.0000E+00  0.0000E+00  0.0000E+00  0.0000E+00  0.0000E+00  0.0000E+00  0.0000E+00  0.0000E+00  0.0000E+00  0.0000E+00  0.0000E+00  0.0000E+00  0.0000E+00  0.0000E+00  0.0000E+00  0.0000E+00
REACH    2        0    25  0.8510E+02  0.9449E-01  0.7050E-01  0.1585E-02  0.8970E-01  0.6167E-08  0.6167E-08  0.1012E-05  0.6357E-05  0.0000E+00  0.1907E-04  0.1062E-04  0.1786E+02  0.1332E+02  0.0000E+00  0.0000E+00  0.0000E+00  0.0000E+00  0.6365E-05  0.0000E+00  0.0000E+00  0.0000E+00  0.0000E+00  0.0000E+00  0.0000E+00  0.1827E-01  0.0000E+00  0.0000E+00  0.0000E+00  0.0000E+00  0.0000E+00  0.0000E+00  0.0000E+00  0.0000E+00  0.0000E+00  0.0000E+00  0.0000E+00  0.0000E+00  0.0000E+00  0.0000E+00  0.0000E+00  0.0000E+00  0.0000E+00
REACH    3        0    25  0.1958E+03  0.1689E+00  0.1393E+00  0.2604E-02  0.1489E+00  0.2760E+01  0.1702E+01  0.1415E+03  0.1244E+02  0.2095E+02  0.2182E+01  0.3670E+01  0.3938E+02  0.2952E+02  0.0000E+00  0.0000E+00  0.0000E+00  0.0000E+00  0.3864E-01  0.0000E+00  0.5107E+02  0.0000E+00  0.3794E+02  0.0000E+00  0.3989E+02  0.9865E+02  0.0000E+00  0.0000E+00  0.0000E+00  0.0000E+00  0.0000E+00  0.0000E+00  0.0000E+00  0.0000E+00  0.0000E+00  0.0000E+00  0.0000E+00  0.0000E+00  0.0000E+00  0.0000E+00  0.0000E+00  0.0000E+00  0.0000E+00
REACH    4        0    25  0.3629E+02  0.3430E-01  0.3230E-01  0.2655E-03  0.1515E-01  0.5344E+00  0.5344E+00  0.1915E+03  0.2600E+01  0.7346E+01  0.4050E+00  0.1145E+01  0.1383E+02  0.1634E+00  0.0000E+00  0.0000E+00  0.0000E+00  0.0000E+00  0.4412E-01  0.0000E+00  0.5010E+02  0.0000E+00  0.1413E+03  0.0000E+00  0.7368E+01  0.2082E+02  0.0000E+00  0.0000E+00  0.0000E+00  0.0000E+00  0.0000E+00  0.0000E+00  0.0000E+00  0.0000E+00  0.0000E+00  0.0000E+00  0.0000E+00  0.0000E+00  0.0000E+00  0.0000E+00  0.0000E+00  0.0000E+00  0.0000E+00
REACH    5        0    25  0.2911E+03  0.2102E+00  0.1654E+00  0.0000E+00  0.2102E+00  0.2237E+01  0.7073E+00  0.4950E+02  0.2829E+02  0.1853E+02  0.4815E+01  0.2827E+01  0.4252E+02  0.3345E+02  0.0000E+00  0.0000E+00  0.0000E+00  0.0000E+00  0.3614E-05  0.0000E+00  0.0000E+00  0.0000E+00  0.0000E+00  0.0000E+00  0.1195E+03  0.2820E+03  0.0000E+00  0.0000E+00  0.0000E+00  0.0000E+00  0.0000E+00  0.0000E+00  0.0000E+00  0.0000E+00  0.0000E+00  0.0000E+00  0.0000E+00  0.0000E+00  0.0000E+00  0.0000E+00  0.0000E+00  0.0000E+00  0.0000E+00
REACH    1        0    26  0.7646E+02  0.9849E+00  0.9605E+00  0.7839E-03  0.9444E-01  0.1457E+03  0.1434E+03  0.1728E+04  0.2287E+03  0.2080E+03  0.3453E+02  0.2924E+02  0.1145E+03  0.9142E+02  0.0000E+00  0.0000E+00  0.0000E+00  0.0000E+00  0.1338E+01  0.3913E+01  0.7910E+02  0.0000E+00  0.3360E+05  0.0000E+00  0.8358E+03  0.0000E+00  0.0000E+00  0.0000E+00  0.0000E+00  0.0000E+00  0.0000E+00  0.0000E+00  0.0000E+00  0.0000E+00  0.0000E+00  0.0000E+00  0.0000E+00  0.0000E+00  0.0000E+00  0.0000E+00  0.0000E+00  0.0000E+00  0.0000E+00
REACH    2        0    26  0.8510E+02  0.4608E+00  0.4509E+00  0.7513E-03  0.9047E-01  0.6963E-01  0.6963E-01  0.1787E+01  0.3449E-01  0.1012E+00  0.1891E-01  0.5551E-01  0.8747E+02  0.8469E+02  0.0000E+00  0.0000E+00  0.0000E+00  0.0000E+00  0.1817E+00  0.3269E-01  0.8715E+01  0.0000E+00  0.2618E+00  0.0000E+00  0.4280E+03  0.1115E+04  0.0000E+00  0.0000E+00  0.0000E+00  0.0000E+00  0.0000E+00  0.0000E+00  0.0000E+00  0.0000E+00  0.0000E+00  0.0000E+00  0.0000E+00  0.0000E+00  0.0000E+00  0.0000E+00  0.0000E+00  0.0000E+00  0.0000E+00
REACH    3        0    26  0.1958E+03  0.1600E+01  0.1566E+01  0.1237E-02  0.1504E+00  0.1478E+03  0.1257E+03  0.9289E+03  0.2141E+03  0.1917E+03  0.3046E+02  0.2544E+02  0.2157E+03  0.1889E+03  0.0000E+00  0.0000E+00  0.0000E+00  0.0000E+00  0.4074E+01  0.6515E+01  0.6165E+02  0.0000E+00  0.3130E+03  0.0000E+00  0.1154E+04  0.3387E+04  0.0000E+00  0.0000E+00  0.0000E+00  0.0000E+00  0.0000E+00  0.0000E+00  0.0000E+00  0.0000E+00  0.0000E+00  0.0000E+00  0.0000E+00  0.0000E+00  0.0000E+00  0.0000E+00  0.0000E+00  0.0000E+00  0.0000E+00
REACH    4        0    26  0.3629E+02  0.2092E+00  0.2083E+00  0.1260E-03  0.1530E-01  0.3370E+01  0.3370E+01  0.1872E+03  0.1584E+02  0.3081E+02  0.2424E+01  0.5111E+01  0.4425E+02  0.3480E+02  0.0000E+00  0.0000E+00  0.0000E+00  0.0000E+00  0.1376E+00  0.0000E+00  0.5829E+02  0.0000E+00  0.1302E+04  0.0000E+00  0.4380E+02  0.1308E+03  0.0000E+00  0.0000E+00  0.0000E+00  0.0000E+00  0.0000E+00  0.0000E+00  0.0000E+00  0.0000E+00  0.0000E+00  0.0000E+00  0.0000E+00  0.0000E+00  0.0000E+00  0.0000E+00  0.0000E+00  0.0000E+00  0.0000E+00
REACH    5        0    26  0.2911E+03  0.2090E+01  0.1905E+01  0.2856E-02  0.3481E+00  0.1291E+03  0.9036E+02  0.5488E+03  0.2225E+03  0.1676E+03  0.3055E+02  0.2053E+02  0.2908E+03  0.2651E+03  0.0000E+00  0.0000E+00  0.0000E+00  0.0000E+00  0.6515E+01  0.1220E+02  0.0000E+00  0.0000E+00  0.0000E+00  0.0000E+00  0.3518E+04  0.0000E+00  0.0000E+00  0.0000E+00  0.0000E+00  0.0000E+00  0.0000E+00  0.0000E+00  0.0000E+00  0.0000E+00  0.0000E+00  0.0000E+00  0.0000E+00  0.0000E+00  0.0000E+00  0.0000E+00  0.0000E+00  0.0000E+00  0.0000E+00
REACH    1        0    27  0.7646E+02  0.4899E+00  0.5010E+00  0.8411E-03  0.9387E-01  0.7744E+01  0.7744E+01  0.1789E+03  0.1517E+02  0.5329E+02  0.2197E+01  0.7909E+01  0.9320E+02  0.6997E+02  0.0000E+00  0.0000E+00  0.0000E+00  0.0000E+00  0.3601E+00  0.0000E+00  0.1213E+03  0.0000E+00  0.1120E+04  0.0000E+00  0.1714E+02  0.5101E+02  0.0000E+00  0.0000E+00  0.0000E+00  0.0000E+00  0.0000E+00  0.0000E+00  0.0000E+00  0.0000E+00  0.0000E+00  0.0000E+00  0.0000E+00  0.0000E+00  0.0000E+00  0.0000E+00  0.0000E+00  0.0000E+00  0.0000E+00
REACH    2        0    27  0.8510E+02  0.4047E+00  0.4003E+00  0.8084E-03  0.9021E-01  0.5449E-02  0.5449E-02  0.1576E+00  0.2704E-02  0.2195E-02  0.1494E-02  0.1076E-02  0.7820E+02  0.7735E+02  0.0000E+00  0.0000E+00  0.0000E+00  0.0000E+00  0.2447E-01  0.4734E-01  0.0000E+00  0.0000E+00  0.0000E+00  0.0000E+00  0.0000E+00  0.1037E+00  0.0000E+00  0.0000E+00  0.0000E+00  0.0000E+00  0.0000E+00  0.0000E+00  0.0000E+00  0.0000E+00  0.0000E+00  0.0000E+00  0.0000E+00  0.0000E+00  0.0000E+00  0.0000E+00  0.0000E+00  0.0000E+00  0.0000E+00
REACH    3        0    27  0.1958E+03  0.1039E+01  0.1055E+01  0.1330E-02  0.1499E+00  0.8079E+01  0.9096E+01  0.9979E+02  0.5388E+02  0.1686E+03  0.8019E+01  0.2496E+02  0.1782E+03  0.1389E+03  0.0000E+00  0.0000E+00  0.0000E+00  0.0000E+00  0.6610E-01  0.0000E+00  0.9109E+03  0.0000E+00  0.6125E+01  0.0000E+00  0.5639E+02  0.3063E+03  0.0000E+00  0.0000E+00  0.0000E+00  0.0000E+00  0.0000E+00  0.0000E+00  0.0000E+00  0.0000E+00  0.0000E+00  0.0000E+00  0.0000E+00  0.0000E+00  0.0000E+00  0.0000E+00  0.0000E+00  0.0000E+00  0.0000E+00
REACH    4        0    27  0.3629E+02  0.1515E+00  0.1511E+00  0.1359E-03  0.1530E-01  0.9953E-01  0.9953E-01  0.7626E+01  0.4702E+00  0.1406E+01  0.7332E-01  0.2193E+00  0.3591E+02  0.3498E+02  0.0000E+00  0.0000E+00  0.0000E+00  0.0000E+00  0.7960E-02  0.0000E+00  0.4914E+02  0.0000E+00  0.3282E+02  0.0000E+00  0.4047E+01  0.1210E+02  0.0000E+00  0.0000E+00  0.0000E+00  0.0000E+00  0.0000E+00  0.0000E+00  0.0000E+00  0.0000E+00  0.0000E+00  0.0000E+00  0.0000E+00  0.0000E+00  0.0000E+00  0.0000E+00  0.0000E+00  0.0000E+00  0.0000E+00
REACH    5        0    27  0.2911E+03  0.1489E+01  0.1568E+01  0.3078E-02  0.3476E+00  0.9195E+01  0.1286E+02  0.9490E+02  0.1700E+03  0.1445E+03  0.2518E+02  0.1881E+02  0.2327E+03  0.2432E+03  0.0000E+00  0.0000E+00  0.0000E+00  0.0000E+00  0.3614E-05  0.2076E+01  0.0000E+00  0.0000E+00  0.0000E+00  0.0000E+00  0.3184E+03  0.9365E+03  0.0000E+00  0.0000E+00  0.0000E+00  0.0000E+00  0.0000E+00  0.0000E+00  0.0000E+00  0.0000E+00  0.0000E+00  0.0000E+00  0.0000E+00  0.0000E+00  0.0000E+00  0.0000E+00  0.0000E+00  0.0000E+00  0.0000E+00
REACH    1        0    28  0.7646E+02  0.6430E+00  0.6403E+00  0.1228E-02  0.9387E-01  0.1117E+02  0.1117E+02  0.2019E+03  0.2606E+02  0.4287E+02  0.4003E+01  0.6920E+01  0.1236E+03  0.1131E+03  0.0000E+00  0.0000E+00  0.0000E+00  0.0000E+00  0.3431E+00  0.0000E+00  0.6238E+02  0.0000E+00  0.3102E+04  0.0000E+00  0.5674E+03  0.0000E+00  0.0000E+00  0.0000E+00  0.0000E+00  0.0000E+00  0.0000E+00  0.0000E+00  0.0000E+00  0.0000E+00  0.0000E+00  0.0000E+00  0.0000E+00  0.0000E+00  0.0000E+00  0.0000E+00  0.0000E+00  0.0000E+00  0.0000E+00
REACH    2        0    28  0.8510E+02  0.4266E+00  0.4238E+00  0.1183E-02  0.9047E-01  0.4270E-03  0.4270E-03  0.1166E-01  0.2167E-03  0.1726E-03  0.1318E-03  0.9138E-04  0.7959E+02  0.7906E+02  0.0000E+00  0.0000E+00  0.0000E+00  0.0000E+00  0.4729E-02  0.1409E-01  0.0000E+00  0.0000E+00  0.0000E+00  0.0000E+00  0.0000E+00  0.1098E+00  0.0000E+00  0.0000E+00  0.0000E+00  0.0000E+00  0.0000E+00  0.0000E+00  0.0000E+00  0.0000E+00  0.0000E+00  0.0000E+00  0.0000E+00  0.0000E+00  0.0000E+00  0.0000E+00  0.0000E+00  0.0000E+00  0.0000E+00
REACH    3        0    28  0.1958E+03  0.1218E+01  0.1214E+01  0.1949E-02  0.1502E+00  0.1166E+02  0.1078E+02  0.1027E+03  0.4404E+02  0.7128E+02  0.7112E+01  0.1172E+02  0.2260E+03  0.2237E+03  0.0000E+00  0.0000E+00  0.0000E+00  0.0000E+00  0.5068E-01  0.1515E+00  0.1020E+03  0.0000E+00  0.2984E+02  0.0000E+00  0.5884E+01  0.1759E+02  0.0000E+00  0.0000E+00  0.0000E+00  0.0000E+00  0.0000E+00  0.0000E+00  0.0000E+00  0.0000E+00  0.0000E+00  0.0000E+00  0.0000E+00  0.0000E+00  0.0000E+00  0.0000E+00  0.0000E+00  0.0000E+00  0.0000E+00
REACH    4        0    28  0.3629E+02  0.1734E+00  0.1731E+00  0.1988E-03  0.1530E-01  0.4173E+00  0.4173E+00  0.2790E+02  0.2195E+01  0.6572E+01  0.3276E+00  0.9809E+00  0.4134E+02  0.3690E+02  0.0000E+00  0.0000E+00  0.0000E+00  0.0000E+00  0.3624E-01  0.0000E+00  0.6077E+02  0.0000E+00  0.1246E+03  0.0000E+00  0.6416E+01  0.1921E+02  0.0000E+00  0.0000E+00  0.0000E+00  0.0000E+00  0.0000E+00  0.0000E+00  0.0000E+00  0.0000E+00  0.0000E+00  0.0000E+00  0.0000E+00  0.0000E+00  0.0000E+00  0.0000E+00  0.0000E+00  0.0000E+00  0.0000E+00
REACH    5        0    28  0.2911E+03  0.1701E+01  0.1685E+01  0.4506E-02  0.3476E+00  0.1120E+02  0.1065E+02  0.7320E+02  0.7785E+02  0.6183E+02  0.1270E+02  0.8781E+01  0.3211E+03  0.3181E+03  0.0000E+00  0.0000E+00  0.0000E+00  0.0000E+00  0.1515E+00  0.4503E+00  0.0000E+00  0.0000E+00  0.0000E+00  0.0000E+00  0.3680E+02  0.1094E+03  0.0000E+00  0.0000E+00  0.0000E+00  0.0000E+00  0.0000E+00  0.0000E+00  0.0000E+00  0.0000E+00  0.0000E+00  0.0000E+00  0.0000E+00  0.0000E+00  0.0000E+00  0.0000E+00  0.0000E+00  0.0000E+00  0.0000E+00
REACH    1        0    29  0.7646E+02  0.5744E+00  0.5734E+00  0.4343E-03  0.9387E-01  0.2443E+01  0.2443E+01  0.4932E+02  0.6690E+01  0.1322E+02  0.1037E+01  0.2200E+01  0.1226E+03  0.1208E+03  0.0000E+00  0.0000E+00  0.0000E+00  0.0000E+00  0.1480E+00  0.1298E+00  0.2295E+02  0.0000E+00  0.5597E+03  0.0000E+00  0.2291E+02  0.6860E+02  0.0000E+00  0.0000E+00  0.0000E+00  0.0000E+00  0.0000E+00  0.0000E+00  0.0000E+00  0.0000E+00  0.0000E+00  0.0000E+00  0.0000E+00  0.0000E+00  0.0000E+00  0.0000E+00  0.0000E+00  0.0000E+00  0.0000E+00
REACH    2        0    29  0.8510E+02  0.6355E+00  0.6343E+00  0.4195E-03  0.9073E-01  0.5487E-03  0.5487E-03  0.1001E-01  0.2684E-03  0.8036E-03  0.1600E-03  0.4792E-03  0.1165E+03  0.1162E+03  0.0000E+00  0.0000E+00  0.0000E+00  0.0000E+00  0.2873E-01  0.5247E-01  0.1241E+01  0.0000E+00  0.1372E-02  0.0000E+00  0.4047E+03  0.1212E+04  0.0000E+00  0.0000E+00  0.0000E+00  0.0000E+00  0.0000E+00  0.0000E+00  0.0000E+00  0.0000E+00  0.0000E+00  0.0000E+00  0.0000E+00  0.0000E+00  0.0000E+00  0.0000E+00  0.0000E+00  0.0000E+00  0.0000E+00
REACH    3        0    29  0.1958E+03  0.1413E+01  0.1412E+01  0.6892E-03  0.1504E+00  0.3305E+01  0.3902E+01  0.3199E+02  0.1599E+02  0.3254E+02  0.2652E+01  0.5557E+01  0.2773E+03  0.2742E+03  0.0000E+00  0.0000E+00  0.0000E+00  0.0000E+00  0.2470E+00  0.4197E+00  0.5755E+02  0.0000E+00  0.1322E+03  0.0000E+00  0.1292E+04  0.9771E+03  0.0000E+00  0.0000E+00  0.0000E+00  0.0000E+00  0.0000E+00  0.0000E+00  0.0000E+00  0.0000E+00  0.0000E+00  0.0000E+00  0.0000E+00  0.0000E+00  0.0000E+00  0.0000E+00  0.0000E+00  0.0000E+00  0.0000E+00
REACH    4        0    29  0.3629E+02  0.2345E+00  0.2344E+00  0.7046E-04  0.1537E-01  0.1749E+01  0.1749E+01  0.8638E+02  0.7209E+01  0.2161E+02  0.1106E+01  0.3315E+01  0.5186E+02  0.4764E+02  0.0000E+00  0.0000E+00  0.0000E+00  0.0000E+00  0.6630E-01  0.0000E+00  0.5520E+02  0.0000E+00  0.5551E+03  0.0000E+00  0.1556E+02  0.4664E+02  0.0000E+00  0.0000E+00  0.0000E+00  0.0000E+00  0.0000E+00  0.0000E+00  0.0000E+00  0.0000E+00  0.0000E+00  0.0000E+00  0.0000E+00  0.0000E+00  0.0000E+00  0.0000E+00  0.0000E+00  0.0000E+00  0.0000E+00
REACH    5        0    29  0.2911E+03  0.2053E+01  0.2046E+01  0.1591E-02  0.3481E+00  0.5651E+01  0.7163E+01  0.4051E+02  0.5415E+02  0.4365E+02  0.8872E+01  0.6272E+01  0.3897E+03  0.3885E+03  0.0000E+00  0.0000E+00  0.0000E+00  0.0000E+00  0.4197E+00  0.1255E+01  0.0000E+00  0.0000E+00  0.0000E+00  0.0000E+00  0.1024E+04  0.3062E+04  0.0000E+00  0.0000E+00  0.0000E+00  0.0000E+00  0.0000E+00  0.0000E+00  0.0000E+00  0.0000E+00  0.0000E+00  0.0000E+00  0.0000E+00  0.0000E+00  0.0000E+00  0.0000E+00  0.0000E+00  0.0000E+00  0.0000E+00
[...]
REACH    5        0    58  0.2911E+03  0.8820E+00  0.8780E+00  0.3360E-02  0.3467E+00  0.6657E+00  0.1653E+01  0.2179E+02  0.8085E+00  0.6528E+00  0.8773E-01  0.6226E-01  0.1751E+03  0.1743E+03  0.0000E+00  0.0000E+00  0.0000E+00  0.0000E+00  0.1885E+00  0.2455E+00  0.0000E+00  0.0000E+00  0.0000E+00  0.0000E+00  0.5122E+00  0.1530E+01  0.0000E+00  0.0000E+00  0.0000E+00  0.0000E+00  0.0000E+00  0.0000E+00  0.0000E+00  0.0000E+00  0.0000E+00  0.0000E+00  0.0000E+00  0.0000E+00  0.0000E+00  0.0000E+00  0.0000E+00  0.0000E+00  0.0000E+00
REACH    1        0    59  0.7646E+02  0.1990E+00  0.1973E+00  0.1393E-02  0.9302E-01  0.3609E-06  0.3609E-06  0.2117E-04  0.6041E-05  0.0000E+00  0.1392E-04  0.0000E+00  0.5413E+02  0.5369E+02  0.0000E+00  0.0000E+00  0.0000E+00  0.0000E+00  0.4638E-05  0.0000E+00  0.0000E+00  0.0000E+00  0.0000E+00  0.0000E+00  0.0000E+00  0.5115E-01  0.0000E+00  0.0000E+00  0.0000E+00  0.0000E+00  0.0000E+00  0.0000E+00  0.0000E+00  0.0000E+00  0.0000E+00  0.0000E+00  0.0000E+00  0.0000E+00  0.0000E+00  0.0000E+00  0.0000E+00  0.0000E+00  0.0000E+00
REACH    2        0    59  0.8510E+02  0.3721E+00  0.3706E+00  0.1349E-02  0.9021E-01  0.4788E-01  0.4788E-01  0.1495E+01  0.3870E+00  0.3135E+00  0.5276E-01  0.3765E-01  0.7536E+02  0.7505E+02  0.0000E+00  0.0000E+00  0.0000E+00  0.0000E+00  0.2056E-01  0.5576E-01  0.0000E+00  0.0000E+00  0.0000E+00  0.0000E+00  0.0000E+00  0.9606E-01  0.0000E+00  0.0000E+00  0.0000E+00  0.0000E+00  0.0000E+00  0.0000E+00  0.0000E+00  0.0000E+00  0.0000E+00  0.0000E+00  0.0000E+00  0.0000E+00  0.0000E+00  0.0000E+00  0.0000E+00  0.0000E+00  0.0000E+00
REACH    3        0    59  0.1958E+03  0.6237E+00  0.6212E+00  0.2211E-02  0.1494E+00  0.5185E-01  0.5262E+00  0.9803E+01  0.3615E+00  0.2928E+00  0.4449E-01  0.3175E-01  0.1390E+03  0.1384E+03  0.0000E+00  0.0000E+00  0.0000E+00  0.0000E+00  0.5837E-01  0.9912E-01  0.0000E+00  0.0000E+00  0.0000E+00  0.0000E+00  0.1472E+00  0.4398E+00  0.0000E+00  0.0000E+00  0.0000E+00  0.0000E+00  0.0000E+00  0.0000E+00  0.0000E+00  0.0000E+00  0.0000E+00  0.0000E+00  0.0000E+00  0.0000E+00  0.0000E+00  0.0000E+00  0.0000E+00  0.0000E+00  0.0000E+00
REACH    4        0    59  0.3629E+02  0.8818E-01  0.8791E-01  0.2255E-03  0.1522E-01  0.1216E-02  0.1216E-02  0.1602E+00  0.2319E-01  0.1881E-01  0.3183E-02  0.2274E-02  0.1493E+02  0.1488E+02  0.0000E+00  0.0000E+00  0.0000E+00  0.0000E+00  0.1218E-02  0.3643E-02  0.0000E+00  0.0000E+00  0.0000E+00  0.0000E+00  0.0000E+00  0.2279E-01  0.0000E+00  0.0000E+00  0.0000E+00  0.0000E+00  0.0000E+00  0.0000E+00  0.0000E+00  0.0000E+00  0.0000E+00  0.0000E+00  0.0000E+00  0.0000E+00  0.0000E+00  0.0000E+00  0.0000E+00  0.0000E+00  0.0000E+00
REACH    5        0    59  0.2911E+03  0.7906E+00  0.7847E+00  0.5107E-02  0.3463E+00  0.5274E+00  0.1449E+01  0.2137E+02  0.3116E+00  0.2516E+00  0.3404E-01  0.2421E-01  0.1605E+03  0.1593E+03  0.0000E+00  0.0000E+00  0.0000E+00  0.0000E+00  0.1037E+00  0.1494E+00  0.0000E+00  0.0000E+00  0.0000E+00  0.0000E+00  0.4626E+00  0.1377E+01  0.0000E+00  0.0000E+00  0.0000E+00  0.0000E+00  0.0000E+00  0.0000E+00  0.0000E+00  0.0000E+00  0.0000E+00  0.0000E+00  0.0000E+00  0.0000E+00  0.0000E+00  0.0000E+00  0.0000E+00  0.0000E+00  0.0000E+00
REACH    1        0    60  0.7646E+02  0.1891E+00  0.1866E+00  0.2154E-02  0.9302E-01  0.8646E-07  0.8646E-07  0.5363E-05  0.4631E-05  0.0000E+00  0.1389E-04  0.0000E+00  0.5165E+02  0.5095E+02  0.0000E+00  0.0000E+00  0.0000E+00  0.0000E+00  0.4638E-05  0.0000E+00  0.0000E+00  0.0000E+00  0.0000E+00  0.0000E+00  0.0000E+00  0.4836E-01  0.0000E+00  0.0000E+00  0.0000E+00  0.0000E+00  0.0000E+00  0.0000E+00  0.0000E+00  0.0000E+00  0.0000E+00  0.0000E+00  0.0000E+00  0.0000E+00  0.0000E+00  0.0000E+00  0.0000E+00  0.0000E+00  0.0000E+00
REACH    2        0    60  0.8510E+02  0.3347E+00  0.3323E+00  0.2088E-02  0.9021E-01  0.1597E-01  0.1597E-01  0.5563E+00  0.1358E+00  0.1078E+00  0.1843E-01  0.1270E-01  0.6779E+02  0.6729E+02  0.0000E+00  0.0000E+00  0.0000E+00  0.0000E+00  0.6870E-02  0.2046E-01  0.0000E+00  0.0000E+00  0.0000E+00  0.0000E+00  0.0000E+00  0.8612E-01  0.0000E+00  0.0000E+00  0.0000E+00  0.0000E+00  0.0000E+00  0.0000E+00  0.0000E+00  0.0000E+00  0.0000E+00  0.0000E+00  0.0000E+00  0.0000E+00  0.0000E+00  0.0000E+00  0.0000E+00  0.0000E+00  0.0000E+00
REACH    3        0    60  0.1958E+03  0.5685E+00  0.5645E+00  0.3426E-02  0.1494E+00  0.1877E-01  0.4549E+00  0.9326E+01  0.1457E+00  0.1157E+00  0.1808E-01  0.1247E-01  0.1277E+03  0.1268E+03  0.0000E+00  0.0000E+00  0.0000E+00  0.0000E+00  0.2250E-01  0.5824E-01  0.0000E+00  0.0000E+00  0.0000E+00  0.0000E+00  0.1345E+00  0.4006E+00  0.0000E+00  0.0000E+00  0.0000E+00  0.0000E+00  0.0000E+00  0.0000E+00  0.0000E+00  0.0000E+00  0.0000E+00  0.0000E+00  0.0000E+00  0.0000E+00  0.0000E+00  0.0000E+00  0.0000E+00  0.0000E+00  0.0000E+00
REACH    4        0    60  0.3629E+02  0.8069E-01  0.8027E-01  0.3494E-03  0.1522E-01  0.9880E-03  0.9880E-03  0.1425E+00  0.1949E-01  0.1550E-01  0.2672E-02  0.1846E-02  0.1394E+02  0.1387E+02  0.0000E+00  0.0000E+00  0.0000E+00  0.0000E+00  0.1024E-02  0.3055E-02  0.0000E+00  0.0000E+00  0.0000E+00  0.0000E+00  0.0000E+00  0.2081E-01  0.0000E+00  0.0000E+00  0.0000E+00  0.0000E+00  0.0000E+00  0.0000E+00  0.0000E+00  0.0000E+00  0.0000E+00  0.0000E+00  0.0000E+00  0.0000E+00  0.0000E+00  0.0000E+00  0.0000E+00  0.0000E+00  0.0000E+00
REACH    5        0    60  0.2911E+03  0.7146E+00  0.7053E+00  0.7921E-02  0.3463E+00  0.4558E+00  0.1274E+01  0.2090E+02  0.1312E+00  0.1035E+00  0.1433E-01  0.9817E-02  0.1468E+03  0.1449E+03  0.0000E+00  0.0000E+00  0.0000E+00  0.0000E+00  0.6181E-01  0.1037E+00  0.0000E+00  0.0000E+00  0.0000E+00  0.0000E+00  0.4214E+00  0.1248E+01  0.0000E+00  0.0000E+00  0.0000E+00  0.0000E+00  0.0000E+00  0.0000E+00  0.0000E+00  0.0000E+00  0.0000E+00  0.0000E+00  0.0000E+00  0.0000E+00  0.0000E+00  0.0000E+00  0.0000E+00  0.0000E+00  0.0000E+00
REACH    1        0    61  0.7646E+02  0.1800E+00  0.1781E+00  0.1589E-02  0.9302E-01  0.4219E-07  0.4219E-07  0.2742E-05  0.4631E-05  0.0000E+00  0.1389E-04  0.0000E+00  0.4931E+02  0.4877E+02  0.0000E+00  0.0000E+00  0.0000E+00  0.0000E+00  0.4638E-05  0.0000E+00  0.0000E+00  0.0000E+00  0.0000E+00  0.0000E+00  0.0000E+00  0.4615E-01  0.0000E+00  0.0000E+00  0.0000E+00  0.0000E+00  0.0000E+00  0.0000E+00  0.0000E+00  0.0000E+00  0.0000E+00  0.0000E+00  0.0000E+00  0.0000E+00  0.0000E+00  0.0000E+00  0.0000E+00  0.0000E+00  0.0000E+00
REACH    2        0    61  0.8510E+02  0.3142E+00  0.3123E+00  0.1539E-02  0.9021E-01  0.5400E-02  0.5400E-02  0.2001E+00  0.4769E-01  0.3771E-01  0.6452E-02  0.4415E-02  0.6598E+02  0.6558E+02  0.0000E+00  0.0000E+00  0.0000E+00  0.0000E+00  0.2329E-02  0.6944E-02  0.0000E+00  0.0000E+00  0.0000E+00  0.0000E+00  0.0000E+00  0.8095E-01  0.0000E+00  0.0000E+00  0.0000E+00  0.0000E+00  0.0000E+00  0.0000E+00  0.0000E+00  0.0000E+00  0.0000E+00  0.0000E+00  0.0000E+00  0.0000E+00  0.0000E+00  0.0000E+00  0.0000E+00  0.0000E+00  0.0000E+00
REACH    3        0    61  0.1958E+03  0.5349E+00  0.5318E+00  0.2523E-02  0.1494E+00  0.7640E-02  0.4205E+00  0.9151E+01  0.6855E-01  0.5422E-01  0.8782E-02  0.6011E-02  0.1231E+03  0.1224E+03  0.0000E+00  0.0000E+00  0.0000E+00  0.0000E+00  0.8595E-02  0.2564E-01  0.0000E+00  0.0000E+00  0.0000E+00  0.0000E+00  0.1271E+00  0.3791E+00  0.0000E+00  0.0000E+00  0.0000E+00  0.0000E+00  0.0000E+00  0.0000E+00  0.0000E+00  0.0000E+00  0.0000E+00  0.0000E+00  0.0000E+00  0.0000E+00  0.0000E+00  0.0000E+00  0.0000E+00  0.0000E+00  0.0000E+00
REACH    4        0    61  0.3629E+02  0.7410E-01  0.7378E-01  0.2572E-03  0.1522E-01  0.8350E-03  0.8350E-03  0.1310E+00  0.1650E-01  0.1307E-01  0.2264E-02  0.1552E-02  0.1306E+02  0.1300E+02  0.0000E+00  0.0000E+00  0.0000E+00  0.0000E+00  0.8673E-03  0.2591E-02  0.0000E+00  0.0000E+00  0.0000E+00  0.0000E+00  0.0000E+00  0.1912E-01  0.0000E+00  0.0000E+00  0.0000E+00  0.0000E+00  0.0000E+00  0.0000E+00  0.0000E+00  0.0000E+00  0.0000E+00  0.0000E+00  0.0000E+00  0.0000E+00  0.0000E+00  0.0000E+00  0.0000E+00  0.0000E+00  0.0000E+00
REACH    5        0    61  0.2911E+03  0.6658E+00  0.6586E+00  0.5828E-02  0.3463E+00  0.4213E+00  0.1175E+01  0.2064E+02  0.6730E-01  0.5297E-01  0.7573E-02  0.5158E-02  0.1407E+03  0.1392E+03  0.0000E+00  0.0000E+00  0.0000E+00  0.0000E+00  0.2849E-01  0.6777E-01  0.0000E+00  0.0000E+00  0.0000E+00  0.0000E+00  0.3982E+00  0.1182E+01  0.0000E+00  0.0000E+00  0.0000E+00  0.0000E+00  0.0000E+00  0.0000E+00  0.0000E+00  0.0000E+00  0.0000E+00  0.0000E+00  0.0000E+00  0.0000E+00  0.0000E+00  0.0000E+00  0.0000E+00  0.0000E+00  0.0000E+00
REACH    1        0    62  0.7646E+02  0.1716E+00  0.1688E+00  0.2307E-02  0.9302E-01  0.2301E-07  0.2301E-07  0.1578E-05  0.4631E-05  0.0000E+00  0.1389E-04  0.0000E+00  0.4712E+02  0.4635E+02  0.0000E+00  0.0000E+00  0.0000E+00  0.0000E+00  0.4638E-05  0.0000E+00  0.0000E+00  0.0000E+00  0.0000E+00  0.0000E+00  0.0000E+00  0.4375E-01  0.0000E+00  0.0000E+00  0.0000E+00  0.0000E+00  0.0000E+00  0.0000E+00  0.0000E+00  0.0000E+00  0.0000E+00  0.0000E+00  0.0000E+00  0.0000E+00  0.0000E+00  0.0000E+00  0.0000E+00  0.0000E+00  0.0000E+00
REACH    2        0    62  0.8510E+02  0.2871E+00  0.2844E+00  0.2235E-02  0.9021E-01  0.1845E-02  0.1845E-02  0.7508E-01  0.1676E-01  0.1315E-01  0.2265E-02  0.1533E-02  0.5974E+02  0.5918E+02  0.0000E+00  0.0000E+00  0.0000E+00  0.0000E+00  0.7983E-03  0.2372E-02  0.0000E+00  0.0000E+00  0.0000E+00  0.0000E+00  0.0000E+00  0.7371E-01  0.0000E+00  0.0000E+00  0.0000E+00  0.0000E+00  0.0000E+00  0.0000E+00  0.0000E+00  0.0000E+00  0.0000E+00  0.0000E+00  0.0000E+00  0.0000E+00  0.0000E+00  0.0000E+00  0.0000E+00  0.0000E+00  0.0000E+00
REACH    3        0    62  0.1958E+03  0.4933E+00  0.4889E+00  0.3668E-02  0.1494E+00  0.3667E-02  0.3839E+00  0.9088E+01  0.3827E-01  0.3006E-01  0.5092E-02  0.3449E-02  0.1137E+03  0.1127E+03  0.0000E+00  0.0000E+00  0.0000E+00  0.0000E+00  0.3716E-02  0.1105E-01  0.0000E+00  0.0000E+00  0.0000E+00  0.0000E+00  0.1175E+00  0.3492E+00  0.0000E+00  0.0000E+00  0.0000E+00  0.0000E+00  0.0000E+00  0.0000E+00  0.0000E+00  0.0000E+00  0.0000E+00  0.0000E+00  0.0000E+00  0.0000E+00  0.0000E+00  0.0000E+00  0.0000E+00  0.0000E+00  0.0000E+00
REACH    4        0    62  0.3629E+02  0.6829E-01  0.6787E-01  0.3724E-03  0.1515E-01  0.7071E-03  0.7071E-03  0.1206E+00  0.1398E-01  0.1101E-01  0.1919E-02  0.1303E-02  0.1226E+02  0.1218E+02  0.0000E+00  0.0000E+00  0.0000E+00  0.0000E+00  0.7350E-03  0.2191E-02  0.0000E+00  0.0000E+00  0.0000E+00  0.0000E+00  0.0000E+00  0.1759E-01  0.0000E+00  0.0000E+00  0.0000E+00  0.0000E+00  0.0000E+00  0.0000E+00  0.0000E+00  0.0000E+00  0.0000E+00  0.0000E+00  0.0000E+00  0.0000E+00  0.0000E+00  0.0000E+00  0.0000E+00  0.0000E+00  0.0000E+00
REACH    5        0    62  0.2911E+03  0.6091E+00  0.5989E+00  0.8478E-02  0.3463E+00  0.3846E+00  0.1054E+01  0.2037E+02  0.4107E-01  0.3200E-01  0.4763E-02  0.3200E-02  0.1295E+03  0.1273E+03  0.0000E+00  0.0000E+00  0.0000E+00  0.0000E+00  0.1338E-01  0.3946E-01  0.0000E+00  0.0000E+00  0.0000E+00  0.0000E+00  0.3668E+00  0.1082E+01  0.0000E+00  0.0000E+00  0.0000E+00  0.0000E+00  0.0000E+00  0.0000E+00  0.0000E+00  0.0000E+00  0.0000E+00  0.0000E+00  0.0000E+00  0.0000E+00  0.0000E+00  0.0000E+00  0.0000E+00  0.0000E+00  0.0000E+00
REACH    1        0    63  0.7646E+02  0.1637E+00  0.1604E+00  0.2678E-02  0.9302E-01  0.1357E-07  0.1357E-07  0.9790E-06  0.4631E-05  0.0000E+00  0.1389E-04  0.0000E+00  0.4505E+02  0.4415E+02  0.0000E+00  0.0000E+00  0.0000E+00  0.0000E+00  0.4638E-05  0.0000E+00  0.0000E+00  0.0000E+00  0.0000E+00  0.0000E+00  0.0000E+00  0.4158E-01  0.0000E+00  0.0000E+00  0.0000E+00  0.0000E+00  0.0000E+00  0.0000E+00  0.0000E+00  0.0000E+00  0.0000E+00  0.0000E+00  0.0000E+00  0.0000E+00  0.0000E+00  0.0000E+00  0.0000E+00  0.0000E+00  0.0000E+00
REACH    2        0    63  0.8510E+02  0.2686E+00  0.2654E+00  0.2595E-02  0.9021E-01  0.6352E-03  0.6352E-03  0.2770E-01  0.5891E-02  0.4598E-02  0.7993E-03  0.5366E-03  0.5664E+02  0.5598E+02  0.0000E+00  0.0000E+00  0.0000E+00  0.0000E+00  0.2764E-03  0.8196E-03  0.0000E+00  0.0000E+00  0.0000E+00  0.0000E+00  0.0000E+00  0.6880E-01  0.0000E+00  0.0000E+00  0.0000E+00  0.0000E+00  0.0000E+00  0.0000E+00  0.0000E+00  0.0000E+00  0.0000E+00  0.0000E+00  0.0000E+00  0.0000E+00  0.0000E+00  0.0000E+00  0.0000E+00  0.0000E+00  0.0000E+00
REACH    3        0    63  0.1958E+03  0.4623E+00  0.4571E+00  0.4258E-02  0.1494E+00  0.2120E-02  0.3579E+00  0.9062E+01  0.2507E-01  0.1958E-01  0.3439E-02  0.2310E-02  0.1078E+03  0.1066E+03  0.0000E+00  0.0000E+00  0.0000E+00  0.0000E+00  0.1915E-02  0.5681E-02  0.0000E+00  0.0000E+00  0.0000E+00  0.0000E+00  0.1104E+00  0.3275E+00  0.0000E+00  0.0000E+00  0.0000E+00  0.0000E+00  0.0000E+00  0.0000E+00  0.0000E+00  0.0000E+00  0.0000E+00  0.0000E+00  0.0000E+00  0.0000E+00  0.0000E+00  0.0000E+00  0.0000E+00  0.0000E+00  0.0000E+00
REACH    4        0    63  0.3629E+02  0.6315E-01  0.6263E-01  0.4323E-03  0.1515E-01  0.5988E-03  0.5988E-03  0.1107E+00  0.1184E-01  0.9274E-02  0.1626E-02  0.1096E-02  0.1153E+02  0.1144E+02  0.0000E+00  0.0000E+00  0.0000E+00  0.0000E+00  0.6229E-03  0.1853E-02  0.0000E+00  0.0000E+00  0.0000E+00  0.0000E+00  0.0000E+00  0.1623E-01  0.0000E+00  0.0000E+00  0.0000E+00  0.0000E+00  0.0000E+00  0.0000E+00  0.0000E+00  0.0000E+00  0.0000E+00  0.0000E+00  0.0000E+00  0.0000E+00  0.0000E+00  0.0000E+00  0.0000E+00  0.0000E+00  0.0000E+00
REACH    5        0    63  0.2911E+03  0.5656E+00  0.5539E+00  0.9830E-02  0.3458E+00  0.3585E+00  0.9991E+00  0.2088E+02  0.2886E-01  0.2233E-01  0.3416E-02  0.2273E-02  0.1220E+03  0.1195E+03  0.0000E+00  0.0000E+00  0.0000E+00  0.0000E+00  0.7608E-02  0.2235E-01  0.0000E+00  0.0000E+00  0.0000E+00  0.0000E+00  0.3437E+00  0.1010E+01  0.0000E+00  0.0000E+00  0.0000E+00  0.0000E+00  0.0000E+00  0.0000E+00  0.0000E+00  0.0000E+00  0.0000E+00  0.0000E+00  0.0000E+00  0.0000E+00  0.0000E+00  0.0000E+00  0.0000E+00  0.0000E+00  0.0000E+00
REACH    1        0    64  0.7646E+02  0.1563E+00  0.1537E+00  0.2043E-02  0.9302E-01  0.8925E-08  0.8925E-08  0.6721E-06  0.4631E-05  0.0000E+00  0.1389E-04  0.0000E+00  0.4309E+02  0.4238E+02  0.0000E+00  0.0000E+00  0.0000E+00  0.0000E+00  0.4638E-05  0.0000E+00  0.0000E+00  0.0000E+00  0.0000E+00  0.0000E+00  0.0000E+00  0.3984E-01  0.0000E+00  0.0000E+00  0.0000E+00  0.0000E+00  0.0000E+00  0.0000E+00  0.0000E+00  0.0000E+00  0.0000E+00  0.0000E+00  0.0000E+00  0.0000E+00  0.0000E+00  0.0000E+00  0.0000E+00  0.0000E+00  0.0000E+00
REACH    2        0    64  0.8510E+02  0.2524E+00  0.2500E+00  0.1979E-02  0.9021E-01  0.2200E-03  0.2200E-03  0.1019E-01  0.2072E-02  0.1644E-02  0.2882E-03  0.1990E-03  0.5389E+02  0.5336E+02  0.0000E+00  0.0000E+00  0.0000E+00  0.0000E+00  0.9701E-04  0.2882E-03  0.0000E+00  0.0000E+00  0.0000E+00  0.0000E+00  0.0000E+00  0.6479E-01  0.0000E+00  0.0000E+00  0.0000E+00  0.0000E+00  0.0000E+00  0.0000E+00  0.0000E+00  0.0000E+00  0.0000E+00  0.0000E+00  0.0000E+00  0.0000E+00  0.0000E+00  0.0000E+00  0.0000E+00  0.0000E+00  0.0000E+00
REACH    3        0    64  0.1958E+03  0.4369E+00  0.4328E+00  0.3247E-02  0.1494E+00  0.1430E-02  0.3384E+00  0.9050E+01  0.1833E-01  0.1455E-01  0.2566E-02  0.1773E-02  0.1029E+03  0.1020E+03  0.0000E+00  0.0000E+00  0.0000E+00  0.0000E+00  0.1181E-02  0.3512E-02  0.0000E+00  0.0000E+00  0.0000E+00  0.0000E+00  0.1046E+00  0.3110E+00  0.0000E+00  0.0000E+00  0.0000E+00  0.0000E+00  0.0000E+00  0.0000E+00  0.0000E+00  0.0000E+00  0.0000E+00  0.0000E+00  0.0000E+00  0.0000E+00  0.0000E+00  0.0000E+00  0.0000E+00  0.0000E+00  0.0000E+00
REACH    4        0    64  0.3629E+02  0.5858E-01  0.5816E-01  0.3296E-03  0.1515E-01  0.5071E-03  0.5071E-03  0.1009E+00  0.1003E-01  0.7977E-02  0.1379E-02  0.9547E-03  0.1088E+02  0.1080E+02  0.0000E+00  0.0000E+00  0.0000E+00  0.0000E+00  0.5280E-03  0.1573E-02  0.0000E+00  0.0000E+00  0.0000E+00  0.0000E+00  0.0000E+00  0.1508E-01  0.0000E+00  0.0000E+00  0.0000E+00  0.0000E+00  0.0000E+00  0.0000E+00  0.0000E+00  0.0000E+00  0.0000E+00  0.0000E+00  0.0000E+00  0.0000E+00  0.0000E+00  0.0000E+00  0.0000E+00  0.0000E+00  0.0000E+00
REACH    5        0    64  0.2911E+03  0.5314E+00  0.5221E+00  0.7493E-02  0.3458E+00  0.3389E+00  0.9338E+00  0.2070E+02  0.2253E-01  0.1774E-01  0.2738E-02  0.1876E-02  0.1163E+03  0.1143E+03  0.0000E+00  0.0000E+00  0.0000E+00  0.0000E+00  0.5124E-02  0.1510E-01  0.0000E+00  0.0000E+00  0.0000E+00  0.0000E+00  0.3260E+00  0.9611E+00  0.0000E+00  0.0000E+00  0.0000E+00  0.0000E+00  0.0000E+00  0.0000E+00  0.0000E+00  0.0000E+00  0.0000E+00  0.0000E+00  0.0000E+00  0.0000E+00  0.0000E+00  0.0000E+00  0.0000E+00  0.0000E+00  0.0000E+00
REACH    1        0    65  0.7646E+02  0.1493E+00  0.1465E+00  0.2275E-02  0.9302E-01  0.6641E-08  0.6641E-08  0.5247E-06  0.4631E-05  0.0000E+00  0.1389E-04  0.0000E+00  0.4123E+02  0.4046E+02  0.0000E+00  0.0000E+00  0.0000E+00  0.0000E+00  0.4638E-05  0.0000E+00  0.0000E+00  0.0000E+00  0.0000E+00  0.0000E+00  0.0000E+00  0.3797E-01  0.0000E+00  0.0000E+00  0.0000E+00  0.0000E+00  0.0000E+00  0.0000E+00  0.0000E+00  0.0000E+00  0.0000E+00  0.0000E+00  0.0000E+00  0.0000E+00  0.0000E+00  0.0000E+00  0.0000E+00  0.0000E+00  0.0000E+00
REACH    2        0    65  0.8510E+02  0.2380E+00  0.2353E+00  0.2199E-02  0.8996E-01  0.7654E-04  0.7654E-04  0.3764E-02  0.7309E-03  0.5818E-03  0.1090E-03  0.7582E-04  0.5135E+02  0.5078E+02  0.0000E+00  0.0000E+00  0.0000E+00  0.0000E+00  0.3599E-04  0.1068E-03  0.0000E+00  0.0000E+00  0.0000E+00  0.0000E+00  0.0000E+00  0.6100E-01  0.0000E+00  0.0000E+00  0.0000E+00  0.0000E+00  0.0000E+00  0.0000E+00  0.0000E+00  0.0000E+00  0.0000E+00  0.0000E+00  0.0000E+00  0.0000E+00  0.0000E+00  0.0000E+00  0.0000E+00  0.0000E+00  0.0000E+00
REACH    3        0    65  0.1958E+03  0.4123E+00  0.4080E+00  0.3610E-02  0.1492E+00  0.1063E-02  0.3188E+00  0.9045E+01  0.1419E-01  0.1130E-01  0.2007E-02  0.1396E-02  0.9798E+02  0.9695E+02  0.0000E+00  0.0000E+00  0.0000E+00  0.0000E+00  0.8354E-03  0.2480E-02  0.0000E+00  0.0000E+00  0.0000E+00  0.0000E+00  0.9897E-01  0.2938E+00  0.0000E+00  0.0000E+00  0.0000E+00  0.0000E+00  0.0000E+00  0.0000E+00  0.0000E+00  0.0000E+00  0.0000E+00  0.0000E+00  0.0000E+00  0.0000E+00  0.0000E+00  0.0000E+00  0.0000E+00  0.0000E+00  0.0000E+00
REACH    4        0    65  0.3629E+02  0.5450E-01  0.5405E-01  0.3671E-03  0.1515E-01  0.4295E-03  0.4295E-03  0.9197E-01  0.8491E-02  0.6777E-02  0.1169E-02  0.8151E-03  0.1028E+02  0.1020E+02  0.0000E+00  0.0000E+00  0.0000E+00  0.0000E+00  0.4477E-03  0.1332E-02  0.0000E+00  0.0000E+00  0.0000E+00  0.0000E+00  0.0000E+00  0.1401E-01  0.0000E+00  0.0000E+00  0.0000E+00  0.0000E+00  0.0000E+00  0.0000E+00  0.0000E+00  0.0000E+00  0.0000E+00  0.0000E+00  0.0000E+00  0.0000E+00  0.0000E+00  0.0000E+00  0.0000E+00  0.0000E+00  0.0000E+00
REACH    5        0    65  0.2911E+03  0.4978E+00  0.4876E+00  0.8344E-02  0.3458E+00  0.3192E+00  0.8647E+00  0.2053E+02  0.1808E-01  0.1425E-01  0.2222E-02  0.1530E-02  0.1103E+03  0.1080E+03  0.0000E+00  0.0000E+00  0.0000E+00  0.0000E+00  0.3833E-02  0.1126E-01  0.0000E+00  0.0000E+00  0.0000E+00  0.0000E+00  0.3078E+00  0.9045E+00  0.0000E+00  0.0000E+00  0.0000E+00  0.0000E+00  0.0000E+00  0.0000E+00  0.0000E+00  0.0000E+00  0.0000E+00  0.0000E+00  0.0000E+00  0.0000E+00  0.0000E+00  0.0000E+00  0.0000E+00  0.0000E+00  0.0000E+00
