1
    SWAT Jun 01 2011    VER 2009/Rev. 481                                                                0/ 0/   0      0: 0: 0

    General Input/Output section (file.cio):                                        
    2013-7-14 00:00:00 ARCGIS-SWAT interface AV                                     
                                                                                    


       SUB      GIS  MON   AREAkm2  PRECIPmm SNOMELTmm     PETmm      ETmm      SWmm    PERCmm    SURQmm    GW_Qmm    WYLDmm  SYLDt/ha ORGNkg/ha ORGPkg/haNSURQkg/ha SOLPkg/ha SEDPkg/ha LAT Q(mm)LATNO3kg/hGWNO3kg/haCHOLAkg/haCBODUkg/ha DOXQkg/ha
BIGSUB   1        0    1.76460E+02 0.000E+00 0.000E+00 0.611E+00 0.169E+00 0.157E+03 0.000E+00 0.153E-02 0.000E+00 0.180E+00 0.109E-05 0.948E-05 0.118E-05 0.562E-05 0.447E-06 0.101E-06 0.179E+00 0.256E-02 0.100E-11 .00000E+00 0.000E+00 0.000E+00
BIGSUB   2        0    1.85095E+02 0.000E+00 0.000E+00 0.610E+00 0.184E+00 0.146E+03 0.000E+00 0.694E-04 0.000E+00 0.152E+00 0.102E-06 0.819E-06 0.102E-06 0.690E-06 0.194E-07 0.922E-08 0.152E+00 0.230E-02 0.100E-11 .00000E+00 0.000E+00 0.000E+00
BIGSUB   3        0    1.34257E+02 0.000E+00 0.000E+00 0.603E+00 0.219E+00 0.198E+03 0.000E+00 0.480E-02 0.000E+00 0.158E+00 0.124E-05 0.202E-04 0.322E-05 0.244E-03 0.178E-05 0.187E-07 0.154E+00 0.243E-02 0.100E-11 .00000E+00 0.000E+00 0.000E+00
BIGSUB   4        0    1.36293E+02 0.000E+00 0.000E+00 0.604E+00 0.217E+00 0.262E+03 0.000E+00 0.227E-02 0.000E+00 0.210E+00 0.589E-06 0.103E-04 0.165E-05 0.110E-03 0.992E-06 0.176E-08 0.208E+00 0.271E-02 0.100E-11 .00000E+00 0.000E+00 0.000E+00
BIGSUB   5        0    1.58984E+02 0.000E+00 0.000E+00 0.601E+00 0.169E+00 0.178E+03 0.000E+00 0.121E-02 0.000E+00 0.173E+00 0.134E-05 0.894E-06 0.134E-06 0.552E-05 0.325E-06 0.118E-06 0.171E+00 0.200E-02 0.100E-11 .00000E+00 0.000E+00 0.000E+00
BIGSUB   1        0    2.76460E+02 0.000E+00 0.000E+00 0.815E+00 0.240E+00 0.157E+03 0.000E+00 0.738E-03 0.000E+00 0.160E+00 0.532E-06 0.466E-05 0.582E-06 0.271E-05 0.216E-06 0.492E-07 0.159E+00 0.228E-02 0.100E-11 .00000E+00 0.000E+00 0.000E+00
BIGSUB   2        0    2.85095E+02 0.000E+00 0.000E+00 0.814E+00 0.261E+00 0.146E+03 0.000E+00 0.242E-04 0.000E+00 0.134E+00 0.356E-07 0.288E-06 0.363E-07 0.241E-06 0.690E-08 0.381E-08 0.134E+00 0.199E-02 0.100E-11 .00000E+00 0.000E+00 0.000E+00
BIGSUB   3        0    2.34257E+02 0.000E+00 0.000E+00 0.806E+00 0.307E+00 0.198E+03 0.000E+00 0.391E-02 0.000E+00 0.134E+00 0.101E-05 0.164E-04 0.262E-05 0.199E-03 0.145E-05 0.155E-07 0.130E+00 0.205E-02 0.100E-11 .00000E+00 0.000E+00 0.000E+00
BIGSUB   4        0    2.36293E+02 0.000E+00 0.000E+00 0.808E+00 0.302E+00 0.262E+03 0.000E+00 0.192E-02 0.000E+00 0.184E+00 0.499E-06 0.876E-05 0.139E-05 0.932E-04 0.840E-06 0.176E-08 0.182E+00 0.235E-02 0.100E-11 .00000E+00 0.000E+00 0.000E+00
BIGSUB   5        0    2.58984E+02 0.000E+00 0.000E+00 0.804E+00 0.243E+00 0.178E+03 0.000E+00 0.631E-03 0.000E+00 0.143E+00 0.697E-06 0.466E-06 0.701E-07 0.287E-05 0.169E-06 0.619E-07 0.142E+00 0.164E-02 0.100E-11 .00000E+00 0.000E+00 0.000E+00
BIGSUB   1        0    3.76460E+02 0.000E+00 0.000E+00 0.894E+00 0.265E+00 0.156E+03 0.000E+00 0.358E-03 0.000E+00 0.143E+00 0.260E-06 0.229E-05 0.286E-06 0.131E-05 0.105E-06 0.243E-07 0.143E+00 0.205E-02 0.100E-11 .00000E+00 0.000E+00 0.000E+00
BIGSUB   2        0    3.85095E+02 0.000E+00 0.000E+00 0.893E+00 0.288E+00 0.146E+03 0.000E+00 0.860E-05 0.000E+00 0.119E+00 0.124E-07 0.101E-06 0.131E-07 0.844E-07 0.271E-08 0.195E-08 0.119E+00 0.173E-02 0.100E-11 .00000E+00 0.000E+00 0.000E+00
BIGSUB   3        0    3.34257E+02 0.000E+00 0.000E+00 0.885E+00 0.341E+00 0.197E+03 0.000E+00 0.318E-02 0.000E+00 0.113E+00 0.825E-06 0.134E-04 0.214E-05 0.162E-03 0.118E-05 0.130E-07 0.110E+00 0.173E-02 0.100E-11 .00000E+00 0.000E+00 0.000E+00
BIGSUB   4        0    3.36293E+02 0.000E+00 0.000E+00 0.887E+00 0.335E+00 0.262E+03 0.000E+00 0.163E-02 0.000E+00 0.161E+00 0.423E-06 0.742E-05 0.118E-05 0.790E-04 0.712E-06 0.176E-08 0.160E+00 0.204E-02 0.100E-11 .00000E+00 0.000E+00 0.000E+00
BIGSUB   5        0    3.58984E+02 0.000E+00 0.000E+00 0.883E+00 0.273E+00 0.178E+03 0.000E+00 0.329E-03 0.000E+00 0.118E+00 0.363E-06 0.243E-06 0.367E-07 0.150E-05 0.884E-07 0.326E-07 0.118E+00 0.135E-02 0.100E-11 .00000E+00 0.000E+00 0.000E+00
BIGSUB   1        0    4.76460E+02 0.000E+00 0.000E+00 0.106E+01 0.316E+00 0.156E+03 0.000E+00 0.174E-03 0.000E+00 0.129E+00 0.127E-06 0.113E-05 0.141E-06 0.640E-06 0.513E-07 0.122E-07 0.129E+00 0.185E-02 0.100E-11 .00000E+00 0.000E+00 0.000E+00
BIGSUB   2        0    4.85095E+02 0.000E+00 0.000E+00 0.106E+01 0.344E+00 0.145E+03 0.000E+00 0.331E-05 0.000E+00 0.106E+00 0.436E-08 0.360E-07 0.488E-08 0.297E-07 0.124E-08 0.149E-08 0.106E+00 0.152E-02 0.100E-11 .00000E+00 0.000E+00 0.000E+00
BIGSUB   3        0    4.34257E+02 0.000E+00 0.000E+00 0.105E+01 0.407E+00 0.197E+03 0.000E+00 0.260E-02 0.000E+00 0.962E-01 0.673E-06 0.109E-04 0.174E-05 0.132E-03 0.964E-06 0.109E-07 0.936E-01 0.147E-02 0.100E-11 .00000E+00 0.000E+00 0.000E+00
BIGSUB   4        0    4.36293E+02 0.000E+00 0.000E+00 0.106E+01 0.396E+00 0.261E+03 0.000E+00 0.138E-02 0.000E+00 0.142E+00 0.358E-06 0.629E-05 0.100E-05 0.669E-04 0.603E-06 0.176E-08 0.141E+00 0.178E-02 0.100E-11 .00000E+00 0.000E+00 0.000E+00
BIGSUB   5        0    4.58984E+02 0.000E+00 0.000E+00 0.105E+01 0.326E+00 0.177E+03 0.000E+00 0.171E-03 0.000E+00 0.984E-01 0.189E-06 0.127E-06 0.193E-07 0.780E-06 0.462E-07 0.173E-07 0.982E-01 0.111E-02 0.100E-11 .00000E+00 0.000E+00 0.000E+00
BIGSUB   1        0    5.76460E+02 0.000E+00 0.000E+00 0.934E+00 0.276E+00 0.156E+03 0.000E+00 0.850E-04 0.000E+00 0.117E+00 0.623E-07 0.555E-06 0.695E-07 0.312E-06 0.251E-07 0.635E-08 0.117E+00 0.168E-02 0.100E-11 .00000E+00 0.000E+00 0.000E+00
BIGSUB   2        0    5.85095E+02 0.000E+00 0.000E+00 0.933E+00 0.302E+00 0.145E+03 0.000E+00 0.145E-05 0.000E+00 0.959E-01 0.153E-08 0.129E-07 0.200E-08 0.107E-07 0.747E-09 0.149E-08 0.959E-01 0.134E-02 0.100E-11 .00000E+00 0.000E+00 0.000E+00
BIGSUB   3        0    5.34257E+02 0.000E+00 0.000E+00 0.925E+00 0.357E+00 0.196E+03 0.000E+00 0.212E-02 0.000E+00 0.822E-01 0.548E-06 0.891E-05 0.142E-05 0.108E-03 0.786E-06 0.917E-08 0.801E-01 0.125E-02 0.100E-11 .00000E+00 0.000E+00 0.000E+00
BIGSUB   4        0    5.36293E+02 0.000E+00 0.000E+00 0.926E+00 0.344E+00 0.261E+03 0.000E+00 0.117E-02 0.000E+00 0.126E+00 0.303E-06 0.532E-05 0.847E-06 0.566E-04 0.511E-06 0.176E-08 0.125E+00 0.156E-02 0.100E-11 .00000E+00 0.000E+00 0.000E+00
BIGSUB   5        0    5.58984E+02 0.000E+00 0.000E+00 0.922E+00 0.287E+00 0.177E+03 0.000E+00 0.895E-04 0.000E+00 0.822E-01 0.985E-07 0.661E-07 0.102E-07 0.406E-06 0.242E-07 0.931E-08 0.821E-01 0.915E-03 0.100E-11 .00000E+00 0.000E+00 0.000E+00
BIGSUB   1        0    6.76460E+02 0.000E+00 0.000E+00 0.769E+00 0.226E+00 0.156E+03 0.000E+00 0.416E-04 0.000E+00 0.107E+00 0.306E-07 0.273E-06 0.344E-07 0.153E-06 0.123E-07 0.346E-08 0.107E+00 0.153E-02 0.100E-11 .00000E+00 0.000E+00 0.000E+00
BIGSUB   2        0    6.85095E+02 0.000E+00 0.000E+00 0.768E+00 0.248E+00 0.145E+03 0.000E+00 0.792E-06 0.000E+00 0.870E-01 0.537E-09 0.484E-08 0.988E-09 0.405E-08 0.747E-09 0.149E-08 0.870E-01 0.119E-02 0.100E-11 .00000E+00 0.000E+00 0.000E+00
BIGSUB   3        0    6.34257E+02 0.000E+00 0.000E+00 0.760E+00 0.290E+00 0.196E+03 0.000E+00 0.172E-02 0.000E+00 0.706E-01 0.447E-06 0.726E-05 0.116E-05 0.878E-04 0.640E-06 0.778E-08 0.688E-01 0.107E-02 0.100E-11 .00000E+00 0.000E+00 0.000E+00
BIGSUB   4        0    6.36293E+02 0.000E+00 0.000E+00 0.761E+00 0.280E+00 0.261E+03 0.000E+00 0.988E-03 0.000E+00 0.111E+00 0.257E-06 0.451E-05 0.717E-06 0.480E-04 0.433E-06 0.176E-08 0.110E+00 0.137E-02 0.100E-11 .00000E+00 0.000E+00 0.000E+00
BIGSUB   5        0    6.58984E+02 0.000E+00 0.000E+00 0.758E+00 0.237E+00 0.177E+03 0.000E+00 0.468E-04 0.000E+00 0.690E-01 0.513E-07 0.346E-07 0.547E-08 0.212E-06 0.128E-07 0.516E-08 0.690E-01 0.756E-03 0.100E-11 .00000E+00 0.000E+00 0.000E+00
BIGSUB   1        0    7.76460E+02 0.000E+00 0.000E+00 0.116E+01 0.340E+00 0.155E+03 0.000E+00 0.204E-04 0.000E+00 0.987E-01 0.150E-07 0.134E-06 0.171E-07 0.748E-07 0.624E-08 0.204E-08 0.987E-01 0.141E-02 0.100E-11 .00000E+00 0.000E+00 0.000E+00
BIGSUB   2        0    7.85095E+02 0.000E+00 0.000E+00 0.116E+01 0.377E+00 0.145E+03 0.000E+00 0.743E-06 0.000E+00 0.793E-01 0.189E-09 0.199E-08 0.747E-09 0.171E-08 0.747E-09 0.149E-08 0.793E-01 0.107E-02 0.100E-11 .00000E+00 0.000E+00 0.000E+00
BIGSUB   3        0    7.34257E+02 0.000E+00 0.000E+00 0.115E+01 0.439E+00 0.196E+03 0.000E+00 0.141E-02 0.000E+00 0.609E-01 0.364E-06 0.592E-05 0.945E-06 0.716E-04 0.522E-06 0.665E-08 0.595E-01 0.921E-03 0.100E-11 .00000E+00 0.000E+00 0.000E+00
BIGSUB   4        0    7.36293E+02 0.000E+00 0.000E+00 0.115E+01 0.426E+00 0.260E+03 0.000E+00 0.837E-03 0.000E+00 0.992E-01 0.217E-06 0.382E-05 0.608E-06 0.406E-04 0.366E-06 0.176E-08 0.983E-01 0.120E-02 0.100E-11 .00000E+00 0.000E+00 0.000E+00
BIGSUB   5        0    7.58984E+02 0.000E+00 0.000E+00 0.115E+01 0.364E+00 0.177E+03 0.000E+00 0.245E-04 0.000E+00 0.582E-01 0.267E-07 0.182E-07 0.300E-08 0.110E-06 0.681E-08 0.300E-08 0.582E-01 0.626E-03 0.100E-11 .00000E+00 0.000E+00 0.000E+00
BIGSUB   1        0    8.76460E+02 0.000E+00 0.000E+00 0.138E+01 0.404E+00 0.155E+03 0.000E+00 0.102E-04 0.000E+00 0.912E-01 0.737E-08 0.663E-07 0.857E-08 0.367E-07 0.324E-08 0.144E-08 0.912E-01 0.130E-02 0.100E-11 .00000E+00 0.000E+00 0.000E+00
BIGSUB   2        0    8.85095E+02 0.000E+00 0.000E+00 0.138E+01 0.449E+00 0.144E+03 0.000E+00 0.743E-06 0.000E+00 0.728E-01 0.667E-10 0.983E-09 0.747E-09 0.885E-09 0.747E-09 0.149E-08 0.728E-01 0.964E-03 0.100E-11 .00000E+00 0.000E+00 0.000E+00
BIGSUB   3        0    8.34257E+02 0.000E+00 0.000E+00 0.137E+01 0.523E+00 0.195E+03 0.000E+00 0.115E-02 0.000E+00 0.529E-01 0.297E-06 0.482E-05 0.771E-06 0.584E-04 0.425E-06 0.573E-08 0.517E-01 0.796E-03 0.100E-11 .00000E+00 0.000E+00 0.000E+00
BIGSUB   4        0    8.36293E+02 0.000E+00 0.000E+00 0.137E+01 0.510E+00 0.260E+03 0.000E+00 0.709E-03 0.000E+00 0.886E-01 0.184E-06 0.323E-05 0.515E-06 0.344E-04 0.310E-06 0.176E-08 0.879E-01 0.106E-02 0.100E-11 .00000E+00 0.000E+00 0.000E+00
BIGSUB   5        0    8.58984E+02 0.000E+00 0.000E+00 0.137E+01 0.442E+00 0.176E+03 0.000E+00 0.129E-04 0.000E+00 0.493E-01 0.139E-07 0.963E-08 0.172E-08 0.577E-07 0.370E-08 0.187E-08 0.493E-01 0.520E-03 0.100E-11 .00000E+00 0.000E+00 0.000E+00
BIGSUB   1        0    9.76460E+02 0.000E+00 0.000E+00 0.860E+00 0.250E+00 0.155E+03 0.000E+00 0.516E-05 0.000E+00 0.848E-01 0.362E-08 0.328E-07 0.439E-08 0.181E-07 0.176E-08 0.121E-08 0.848E-01 0.121E-02 0.100E-11 .00000E+00 0.000E+00 0.000E+00
BIGSUB   2        0    9.85095E+02 0.000E+00 0.000E+00 0.859E+00 0.277E+00 0.144E+03 0.000E+00 0.743E-06 0.000E+00 0.672E-01 0.239E-10 0.747E-09 0.747E-09 0.747E-09 0.747E-09 0.149E-08 0.672E-01 0.876E-03 0.100E-11 .00000E+00 0.000E+00 0.000E+00
BIGSUB   3        0    9.34257E+02 0.000E+00 0.000E+00 0.851E+00 0.320E+00 0.195E+03 0.000E+00 0.934E-03 0.000E+00 0.461E-01 0.242E-06 0.393E-05 0.628E-06 0.476E-04 0.347E-06 0.497E-08 0.452E-01 0.691E-03 0.100E-11 .00000E+00 0.000E+00 0.000E+00
BIGSUB   4        0    9.36293E+02 0.000E+00 0.000E+00 0.852E+00 0.313E+00 0.260E+03 0.000E+00 0.600E-03 0.000E+00 0.794E-01 0.156E-06 0.274E-05 0.436E-06 0.291E-04 0.263E-06 0.176E-08 0.788E-01 0.941E-03 0.100E-11 .00000E+00 0.000E+00 0.000E+00
BIGSUB   5        0    9.58984E+02 0.000E+00 0.000E+00 0.849E+00 0.275E+00 0.176E+03 0.000E+00 0.689E-05 0.000E+00 0.420E-01 0.725E-08 0.517E-08 0.105E-08 0.302E-07 0.209E-08 0.141E-08 0.420E-01 0.434E-03 0.100E-11 .00000E+00 0.000E+00 0.000E+00
BIGSUB   1        0   10.76460E+02 0.000E+00 0.000E+00 0.118E+01 0.344E+00 0.154E+03 0.000E+00 0.271E-05 0.000E+00 0.791E-01 0.178E-08 0.163E-07 0.233E-08 0.908E-08 0.104E-08 0.121E-08 0.791E-01 0.113E-02 0.100E-11 .00000E+00 0.000E+00 0.000E+00
BIGSUB   2        0   10.85095E+02 0.201E+00 0.000E+00 0.432E+00 0.177E+00 0.144E+03 0.000E+00 0.743E-06 0.000E+00 0.623E-01 0.882E-11 0.747E-09 0.747E-09 0.747E-09 0.747E-09 0.149E-08 0.623E-01 0.800E-03 0.100E-11 .00000E+00 0.000E+00 0.000E+00
BIGSUB   3        0   10.34257E+02 0.100E+00 0.000E+00 0.429E+00 0.199E+00 0.195E+03 0.000E+00 0.514E-04 0.000E+00 0.398E-01 0.197E-06 0.321E-05 0.512E-06 0.388E-04 0.283E-06 0.436E-08 0.397E-01 0.604E-03 0.100E-11 .00000E+00 0.000E+00 0.000E+00
BIGSUB   4        0   10.36293E+02 0.100E+00 0.000E+00 0.429E+00 0.206E+00 0.259E+03 0.000E+00 0.875E-06 0.000E+00 0.710E-01 0.132E-06 0.232E-05 0.369E-06 0.247E-04 0.223E-06 0.176E-08 0.710E-01 0.837E-03 0.100E-11 .00000E+00 0.000E+00 0.000E+00
BIGSUB   5        0   10.58984E+02 0.100E+00 0.000E+00 0.428E+00 0.187E+00 0.176E+03 0.000E+00 0.374E-05 0.000E+00 0.359E-01 0.378E-08 0.285E-08 0.704E-09 0.159E-07 0.124E-08 0.122E-08 0.359E-01 0.362E-03 0.100E-11 .00000E+00 0.000E+00 0.000E+00
BIGSUB   1        0   11.76460E+02 0.000E+00 0.000E+00 0.141E+01 0.409E+00 0.154E+03 0.000E+00 0.150E-05 0.000E+00 0.740E-01 0.876E-09 0.819E-08 0.131E-08 0.464E-08 0.680E-09 0.121E-08 0.740E-01 0.106E-02 0.100E-11 .00000E+00 0.000E+00 0.000E+00
BIGSUB   2        0   11.85095E+02 0.000E+00 0.000E+00 0.141E+01 0.457E+00 0.143E+03 0.000E+00 0.743E-06 0.000E+00 0.580E-01 0.352E-11 0.747E-09 0.747E-09 0.747E-09 0.747E-09 0.149E-08 0.580E-01 0.735E-03 0.100E-11 .00000E+00 0.000E+00 0.000E+00
BIGSUB   3        0   11.34257E+02 0.000E+00 0.000E+00 0.140E+01 0.529E+00 0.194E+03 0.000E+00 0.621E-03 0.000E+00 0.357E-01 0.161E-06 0.261E-05 0.418E-06 0.316E-04 0.230E-06 0.386E-08 0.351E-01 0.530E-03 0.100E-11 .00000E+00 0.000E+00 0.000E+00
BIGSUB   4        0   11.36293E+02 0.000E+00 0.000E+00 0.140E+01 0.519E+00 0.259E+03 0.000E+00 0.431E-03 0.000E+00 0.646E-01 0.112E-06 0.196E-05 0.313E-06 0.209E-04 0.189E-06 0.176E-08 0.641E-01 0.747E-03 0.100E-11 .00000E+00 0.000E+00 0.000E+00
BIGSUB   5        0   11.58984E+02 0.000E+00 0.000E+00 0.140E+01 0.461E+00 0.175E+03 0.000E+00 0.210E-05 0.000E+00 0.309E-01 0.197E-08 0.164E-08 0.612E-09 0.844E-08 0.803E-09 0.122E-08 0.309E-01 0.304E-03 0.100E-11 .00000E+00 0.000E+00 0.000E+00
BIGSUB   1        0   12.76460E+02 0.000E+00 0.000E+00 0.106E+01 0.308E+00 0.154E+03 0.000E+00 0.908E-06 0.000E+00 0.696E-01 0.431E-09 0.420E-08 0.816E-09 0.245E-08 0.606E-09 0.121E-08 0.696E-01 0.993E-03 0.100E-11 .00000E+00 0.000E+00 0.000E+00
BIGSUB   2        0   12.85095E+02 0.000E+00 0.000E+00 0.106E+01 0.343E+00 0.143E+03 0.000E+00 0.743E-06 0.000E+00 0.542E-01 0.166E-11 0.747E-09 0.747E-09 0.747E-09 0.747E-09 0.149E-08 0.542E-01 0.679E-03 0.100E-11 .00000E+00 0.000E+00 0.000E+00
BIGSUB   3        0   12.34257E+02 0.000E+00 0.000E+00 0.105E+01 0.396E+00 0.194E+03 0.000E+00 0.506E-03 0.000E+00 0.317E-01 0.131E-06 0.213E-05 0.341E-06 0.258E-04 0.188E-06 0.345E-08 0.312E-01 0.468E-03 0.100E-11 .00000E+00 0.000E+00 0.000E+00
BIGSUB   4        0   12.36293E+02 0.000E+00 0.000E+00 0.106E+01 0.387E+00 0.259E+03 0.000E+00 0.365E-03 0.000E+00 0.586E-01 0.947E-07 0.166E-05 0.265E-06 0.177E-04 0.160E-06 0.176E-08 0.582E-01 0.669E-03 0.100E-11 .00000E+00 0.000E+00 0.000E+00
BIGSUB   5        0   12.58984E+02 0.000E+00 0.000E+00 0.105E+01 0.348E+00 0.175E+03 0.000E+00 0.125E-05 0.000E+00 0.268E-01 0.103E-08 0.101E-08 0.612E-09 0.455E-08 0.612E-09 0.122E-08 0.268E-01 0.256E-03 0.100E-11 .00000E+00 0.000E+00 0.000E+00
BIGSUB   1        0   13.76460E+02 0.000E+00 0.000E+00 0.122E+01 0.351E+00 0.153E+03 0.000E+00 0.615E-06 0.000E+00 0.655E-01 0.212E-09 0.224E-08 0.606E-09 0.138E-08 0.606E-09 0.121E-08 0.655E-01 0.935E-03 0.100E-11 .00000E+00 0.000E+00 0.000E+00
BIGSUB   2        0   13.85095E+02 0.000E+00 0.000E+00 0.122E+01 0.388E+00 0.143E+03 0.000E+00 0.743E-06 0.000E+00 0.509E-01 0.100E-11 0.747E-09 0.747E-09 0.747E-09 0.747E-09 0.149E-08 0.509E-01 0.630E-03 0.100E-11 .00000E+00 0.000E+00 0.000E+00
BIGSUB   3        0   13.34257E+02 0.000E+00 0.000E+00 0.121E+01 0.446E+00 0.193E+03 0.000E+00 0.413E-03 0.000E+00 0.283E-01 0.107E-06 0.174E-05 0.278E-06 0.210E-04 0.153E-06 0.312E-08 0.279E-01 0.415E-03 0.100E-11 .00000E+00 0.000E+00 0.000E+00
BIGSUB   4        0   13.36293E+02 0.000E+00 0.000E+00 0.121E+01 0.431E+00 0.258E+03 0.000E+00 0.309E-03 0.000E+00 0.533E-01 0.802E-07 0.141E-05 0.225E-06 0.150E-04 0.136E-06 0.176E-08 0.530E-01 0.602E-03 0.100E-11 .00000E+00 0.000E+00 0.000E+00
BIGSUB   5        0   13.58984E+02 0.000E+00 0.000E+00 0.120E+01 0.393E+00 0.175E+03 0.000E+00 0.807E-06 0.000E+00 0.234E-01 0.534E-09 0.682E-09 0.612E-09 0.253E-08 0.612E-09 0.122E-08 0.234E-01 0.217E-03 0.100E-11 .00000E+00 0.000E+00 0.000E+00
BIGSUB   1        0   14.76460E+02 0.000E+00 0.000E+00 0.877E+00 0.252E+00 0.153E+03 0.000E+00 0.603E-06 0.000E+00 0.619E-01 0.105E-09 0.127E-08 0.606E-09 0.846E-09 0.606E-09 0.121E-08 0.619E-01 0.883E-03 0.100E-11 .00000E+00 0.000E+00 0.000E+00
BIGSUB   2        0   14.85095E+02 0.000E+00 0.000E+00 0.877E+00 0.278E+00 0.142E+03 0.000E+00 0.743E-06 0.000E+00 0.479E-01 0.774E-12 0.747E-09 0.747E-09 0.747E-09 0.747E-09 0.149E-08 0.479E-01 0.588E-03 0.100E-11 .00000E+00 0.000E+00 0.000E+00
BIGSUB   3        0   14.34257E+02 0.000E+00 0.000E+00 0.868E+00 0.318E+00 0.193E+03 0.000E+00 0.336E-03 0.000E+00 0.255E-01 0.872E-07 0.142E-05 0.227E-06 0.171E-04 0.125E-06 0.285E-08 0.251E-01 0.371E-03 0.100E-11 .00000E+00 0.000E+00 0.000E+00
BIGSUB   4        0   14.36293E+02 0.000E+00 0.000E+00 0.870E+00 0.307E+00 0.258E+03 0.000E+00 0.262E-03 0.000E+00 0.487E-01 0.679E-07 0.119E-05 0.190E-06 0.127E-04 0.115E-06 0.176E-08 0.485E-01 0.544E-03 0.100E-11 .00000E+00 0.000E+00 0.000E+00
BIGSUB   5        0   14.58984E+02 0.000E+00 0.000E+00 0.865E+00 0.282E+00 0.174E+03 0.000E+00 0.609E-06 0.000E+00 0.205E-01 0.279E-09 0.612E-09 0.612E-09 0.147E-08 0.612E-09 0.122E-08 0.205E-01 0.185E-03 0.100E-11 .00000E+00 0.000E+00 0.000E+00
BIGSUB   1        0   15.76460E+02 0.000E+00 0.000E+00 0.111E+01 0.320E+00 0.153E+03 0.000E+00 0.603E-06 0.000E+00 0.586E-01 0.517E-10 0.794E-09 0.606E-09 0.606E-09 0.606E-09 0.121E-08 0.586E-01 0.836E-03 0.100E-11 .00000E+00 0.000E+00 0.000E+00
BIGSUB   2        0   15.85095E+02 0.000E+00 0.000E+00 0.111E+01 0.353E+00 0.142E+03 0.000E+00 0.743E-06 0.000E+00 0.452E-01 0.725E-12 0.747E-09 0.747E-09 0.747E-09 0.747E-09 0.149E-08 0.452E-01 0.550E-03 0.100E-11 .00000E+00 0.000E+00 0.000E+00
BIGSUB   3        0   15.34257E+02 0.000E+00 0.000E+00 0.110E+01 0.404E+00 0.193E+03 0.000E+00 0.274E-03 0.000E+00 0.230E-01 0.711E-07 0.115E-05 0.185E-06 0.140E-04 0.102E-06 0.263E-08 0.227E-01 0.332E-03 0.100E-11 .00000E+00 0.000E+00 0.000E+00
BIGSUB   4        0   15.36293E+02 0.000E+00 0.000E+00 0.111E+01 0.388E+00 0.257E+03 0.000E+00 0.222E-03 0.000E+00 0.447E-01 0.575E-07 0.101E-05 0.161E-06 0.107E-04 0.976E-07 0.176E-08 0.445E-01 0.493E-03 0.100E-11 .00000E+00 0.000E+00 0.000E+00
BIGSUB   5        0   15.58984E+02 0.000E+00 0.000E+00 0.110E+01 0.360E+00 0.174E+03 0.000E+00 0.609E-06 0.000E+00 0.181E-01 0.145E-09 0.612E-09 0.612E-09 0.923E-09 0.612E-09 0.122E-08 0.181E-01 0.158E-03 0.100E-11 .00000E+00 0.000E+00 0.000E+00
BIGSUB   1        0   16.76460E+02 0.000E+00 0.000E+00 0.106E+01 0.306E+00 0.152E+03 0.000E+00 0.603E-06 0.000E+00 0.556E-01 0.257E-10 0.606E-09 0.606E-09 0.606E-09 0.606E-09 0.121E-08 0.556E-01 0.793E-03 0.100E-11 .00000E+00 0.000E+00 0.000E+00
BIGSUB   2        0   16.85095E+02 0.000E+00 0.000E+00 0.106E+01 0.337E+00 0.142E+03 0.000E+00 0.743E-06 0.000E+00 0.428E-01 0.725E-12 0.747E-09 0.747E-09 0.747E-09 0.747E-09 0.149E-08 0.428E-01 0.516E-03 0.100E-11 .00000E+00 0.000E+00 0.000E+00
BIGSUB   3        0   16.34257E+02 0.000E+00 0.000E+00 0.105E+01 0.386E+00 0.192E+03 0.000E+00 0.224E-03 0.000E+00 0.209E-01 0.579E-07 0.941E-06 0.151E-06 0.114E-04 0.833E-07 0.245E-08 0.207E-01 0.300E-03 0.100E-11 .00000E+00 0.000E+00 0.000E+00
BIGSUB   4        0   16.36293E+02 0.000E+00 0.000E+00 0.105E+01 0.372E+00 0.257E+03 0.000E+00 0.188E-03 0.000E+00 0.412E-01 0.487E-07 0.856E-06 0.137E-06 0.910E-05 0.828E-07 0.176E-08 0.410E-01 0.449E-03 0.100E-11 .00000E+00 0.000E+00 0.000E+00
BIGSUB   5        0   16.58984E+02 0.000E+00 0.000E+00 0.105E+01 0.347E+00 0.174E+03 0.000E+00 0.609E-06 0.000E+00 0.161E-01 0.759E-10 0.612E-09 0.612E-09 0.636E-09 0.612E-09 0.122E-08 0.161E-01 0.136E-03 0.100E-11 .00000E+00 0.000E+00 0.000E+00
BIGSUB   1        0   17.76460E+02 0.000E+00 0.000E+00 0.776E+00 0.223E+00 0.152E+03 0.000E+00 0.603E-06 0.000E+00 0.528E-01 0.130E-10 0.606E-09 0.606E-09 0.606E-09 0.606E-09 0.121E-08 0.528E-01 0.753E-03 0.100E-11 .00000E+00 0.000E+00 0.000E+00
BIGSUB   2        0   17.85095E+02 0.000E+00 0.000E+00 0.775E+00 0.245E+00 0.141E+03 0.000E+00 0.743E-06 0.000E+00 0.405E-01 0.725E-12 0.747E-09 0.747E-09 0.747E-09 0.747E-09 0.149E-08 0.405E-01 0.486E-03 0.100E-11 .00000E+00 0.000E+00 0.000E+00
BIGSUB   3        0   17.34257E+02 0.000E+00 0.000E+00 0.767E+00 0.280E+00 0.192E+03 0.000E+00 0.183E-03 0.000E+00 0.191E-01 0.472E-07 0.767E-06 0.123E-06 0.928E-05 0.681E-07 0.230E-08 0.189E-01 0.271E-03 0.100E-11 .00000E+00 0.000E+00 0.000E+00
BIGSUB   4        0   17.36293E+02 0.000E+00 0.000E+00 0.769E+00 0.269E+00 0.257E+03 0.000E+00 0.160E-03 0.000E+00 0.380E-01 0.412E-07 0.725E-06 0.116E-06 0.771E-05 0.703E-07 0.176E-08 0.379E-01 0.410E-03 0.100E-11 .00000E+00 0.000E+00 0.000E+00
BIGSUB   5        0   17.58984E+02 0.000E+00 0.000E+00 0.765E+00 0.252E+00 0.173E+03 0.000E+00 0.609E-06 0.000E+00 0.144E-01 0.397E-10 0.612E-09 0.612E-09 0.612E-09 0.612E-09 0.122E-08 0.144E-01 0.117E-03 0.100E-11 .00000E+00 0.000E+00 0.000E+00
BIGSUB   1        0   18.76460E+02 0.000E+00 0.000E+00 0.843E+00 0.243E+00 0.152E+03 0.000E+00 0.603E-06 0.000E+00 0.503E-01 0.667E-11 0.606E-09 0.606E-09 0.606E-09 0.606E-09 0.121E-08 0.503E-01 0.717E-03 0.100E-11 .00000E+00 0.000E+00 0.000E+00
BIGSUB   2        0   18.85095E+02 0.000E+00 0.000E+00 0.843E+00 0.267E+00 0.141E+03 0.000E+00 0.743E-06 0.000E+00 0.385E-01 0.725E-12 0.747E-09 0.747E-09 0.747E-09 0.747E-09 0.149E-08 0.385E-01 0.459E-03 0.100E-11 .00000E+00 0.000E+00 0.000E+00
BIGSUB   3        0   18.34257E+02 0.000E+00 0.000E+00 0.834E+00 0.304E+00 0.192E+03 0.000E+00 0.149E-03 0.000E+00 0.175E-01 0.385E-07 0.626E-06 0.101E-06 0.757E-05 0.556E-07 0.219E-08 0.173E-01 0.247E-03 0.100E-11 .00000E+00 0.000E+00 0.000E+00
BIGSUB   4        0   18.36293E+02 0.000E+00 0.000E+00 0.836E+00 0.292E+00 0.257E+03 0.000E+00 0.135E-03 0.000E+00 0.352E-01 0.349E-07 0.614E-06 0.984E-07 0.653E-05 0.596E-07 0.176E-08 0.351E-01 0.376E-03 0.100E-11 .00000E+00 0.000E+00 0.000E+00
BIGSUB   5        0   18.58984E+02 0.000E+00 0.000E+00 0.831E+00 0.276E+00 0.173E+03 0.000E+00 0.609E-06 0.000E+00 0.130E-01 0.209E-10 0.612E-09 0.612E-09 0.612E-09 0.612E-09 0.122E-08 0.130E-01 0.102E-03 0.100E-11 .00000E+00 0.000E+00 0.000E+00
BIGSUB   1        0   19.76460E+02 0.000E+00 0.000E+00 0.134E+01 0.386E+00 0.152E+03 0.000E+00 0.603E-06 0.000E+00 0.479E-01 0.358E-11 0.606E-09 0.606E-09 0.606E-09 0.606E-09 0.121E-08 0.479E-01 0.683E-03 0.100E-11 .00000E+00 0.000E+00 0.000E+00
BIGSUB   2        0   19.85095E+02 0.000E+00 0.000E+00 0.134E+01 0.426E+00 0.141E+03 0.000E+00 0.743E-06 0.000E+00 0.366E-01 0.725E-12 0.747E-09 0.747E-09 0.747E-09 0.747E-09 0.149E-08 0.366E-01 0.435E-03 0.100E-11 .00000E+00 0.000E+00 0.000E+00
BIGSUB   3        0   19.34257E+02 0.000E+00 0.000E+00 0.133E+01 0.488E+00 0.191E+03 0.000E+00 0.122E-03 0.000E+00 0.161E-01 0.314E-07 0.510E-06 0.821E-07 0.617E-05 0.455E-07 0.209E-08 0.160E-01 0.226E-03 0.100E-11 .00000E+00 0.000E+00 0.000E+00
BIGSUB   4        0   19.36293E+02 0.000E+00 0.000E+00 0.133E+01 0.471E+00 0.256E+03 0.000E+00 0.115E-03 0.000E+00 0.327E-01 0.296E-07 0.520E-06 0.835E-07 0.553E-05 0.506E-07 0.176E-08 0.326E-01 0.346E-03 0.100E-11 .00000E+00 0.000E+00 0.000E+00
BIGSUB   5        0   19.58984E+02 0.000E+00 0.000E+00 0.133E+01 0.446E+00 0.173E+03 0.000E+00 0.609E-06 0.000E+00 0.117E-01 0.111E-10 0.612E-09 0.612E-09 0.612E-09 0.612E-09 0.122E-08 0.117E-01 0.895E-04 0.100E-11 .00000E+00 0.000E+00 0.000E+00
BIGSUB   1        0   20.76460E+02 0.000E+00 0.000E+00 0.156E+01 0.463E+00 0.151E+03 0.000E+00 0.603E-06 0.000E+00 0.457E-01 0.205E-11 0.606E-09 0.606E-09 0.606E-09 0.606E-09 0.121E-08 0.457E-01 0.651E-03 0.100E-11 .00000E+00 0.000E+00 0.000E+00
BIGSUB   2        0   20.85095E+02 0.000E+00 0.000E+00 0.156E+01 0.515E+00 0.140E+03 0.000E+00 0.743E-06 0.000E+00 0.348E-01 0.725E-12 0.747E-09 0.747E-09 0.747E-09 0.747E-09 0.149E-08 0.348E-01 0.412E-03 0.100E-11 .00000E+00 0.000E+00 0.000E+00
BIGSUB   3        0   20.34257E+02 0.000E+00 0.000E+00 0.155E+01 0.592E+00 0.191E+03 0.000E+00 0.992E-04 0.000E+00 0.149E-01 0.256E-07 0.416E-06 0.671E-07 0.503E-05 0.372E-07 0.201E-08 0.148E-01 0.207E-03 0.100E-11 .00000E+00 0.000E+00 0.000E+00
BIGSUB   4        0   20.36293E+02 0.000E+00 0.000E+00 0.155E+01 0.579E+00 0.256E+03 0.000E+00 0.972E-04 0.000E+00 0.305E-01 0.251E-07 0.441E-06 0.708E-07 0.468E-05 0.430E-07 0.176E-08 0.304E-01 0.320E-03 0.100E-11 .00000E+00 0.000E+00 0.000E+00
BIGSUB   5        0   20.58984E+02 0.000E+00 0.000E+00 0.154E+01 0.555E+00 0.172E+03 0.000E+00 0.609E-06 0.000E+00 0.107E-01 0.598E-11 0.612E-09 0.612E-09 0.612E-09 0.612E-09 0.122E-08 0.107E-01 0.789E-04 0.100E-11 .00000E+00 0.000E+00 0.000E+00
BIGSUB   1        0   21.76460E+02 0.000E+00 0.000E+00 0.106E+01 0.305E+00 0.151E+03 0.000E+00 0.603E-06 0.000E+00 0.436E-01 0.130E-11 0.606E-09 0.606E-09 0.606E-09 0.606E-09 0.121E-08 0.436E-01 0.621E-03 0.100E-11 .00000E+00 0.000E+00 0.000E+00
BIGSUB   2        0   21.85095E+02 0.000E+00 0.000E+00 0.106E+01 0.338E+00 0.140E+03 0.000E+00 0.743E-06 0.000E+00 0.332E-01 0.725E-12 0.747E-09 0.747E-09 0.747E-09 0.747E-09 0.149E-08 0.332E-01 0.391E-03 0.100E-11 .00000E+00 0.000E+00 0.000E+00
BIGSUB   3        0   21.34257E+02 0.000E+00 0.000E+00 0.105E+01 0.388E+00 0.190E+03 0.000E+00 0.810E-04 0.000E+00 0.138E-01 0.209E-07 0.339E-06 0.549E-07 0.410E-05 0.305E-07 0.194E-08 0.137E-01 0.191E-03 0.100E-11 .00000E+00 0.000E+00 0.000E+00
BIGSUB   4        0   21.36293E+02 0.000E+00 0.000E+00 0.105E+01 0.375E+00 0.255E+03 0.000E+00 0.825E-04 0.000E+00 0.285E-01 0.212E-07 0.373E-06 0.601E-07 0.397E-05 0.366E-07 0.176E-08 0.285E-01 0.297E-03 0.100E-11 .00000E+00 0.000E+00 0.000E+00
BIGSUB   5        0   21.58984E+02 0.000E+00 0.000E+00 0.105E+01 0.361E+00 0.172E+03 0.000E+00 0.609E-06 0.000E+00 0.980E-02 0.331E-11 0.612E-09 0.612E-09 0.612E-09 0.612E-09 0.122E-08 0.980E-02 0.700E-04 0.100E-11 .00000E+00 0.000E+00 0.000E+00
BIGSUB   1        0   22.76460E+02 0.000E+00 0.000E+00 0.978E+00 0.280E+00 0.150E+03 0.000E+00 0.603E-06 0.000E+00 0.417E-01 0.936E-12 0.606E-09 0.606E-09 0.606E-09 0.606E-09 0.121E-08 0.417E-01 0.593E-03 0.100E-11 .00000E+00 0.000E+00 0.000E+00
BIGSUB   2        0   22.85095E+02 0.000E+00 0.000E+00 0.977E+00 0.309E+00 0.140E+03 0.000E+00 0.743E-06 0.000E+00 0.317E-01 0.725E-12 0.747E-09 0.747E-09 0.747E-09 0.747E-09 0.149E-08 0.317E-01 0.372E-03 0.100E-11 .00000E+00 0.000E+00 0.000E+00
BIGSUB   3        0   22.34257E+02 0.000E+00 0.000E+00 0.968E+00 0.352E+00 0.190E+03 0.000E+00 0.662E-04 0.000E+00 0.129E-01 0.170E-07 0.277E-06 0.449E-07 0.334E-05 0.250E-07 0.189E-08 0.128E-01 0.177E-03 0.100E-11 .00000E+00 0.000E+00 0.000E+00
BIGSUB   4        0   22.36293E+02 0.000E+00 0.000E+00 0.970E+00 0.338E+00 0.255E+03 0.000E+00 0.700E-04 0.000E+00 0.268E-01 0.180E-07 0.316E-06 0.510E-07 0.336E-05 0.311E-07 0.176E-08 0.267E-01 0.276E-03 0.100E-11 .00000E+00 0.000E+00 0.000E+00
BIGSUB   5        0   22.58984E+02 0.000E+00 0.000E+00 0.966E+00 0.329E+00 0.171E+03 0.000E+00 0.609E-06 0.000E+00 0.902E-02 0.193E-11 0.612E-09 0.612E-09 0.612E-09 0.612E-09 0.122E-08 0.902E-02 0.624E-04 0.100E-11 .00000E+00 0.000E+00 0.000E+00
BIGSUB   1        0   23.76460E+02 0.000E+00 0.000E+00 0.151E+01 0.437E+00 0.150E+03 0.000E+00 0.603E-06 0.000E+00 0.398E-01 0.755E-12 0.606E-09 0.606E-09 0.606E-09 0.606E-09 0.121E-08 0.398E-01 0.567E-03 0.100E-11 .00000E+00 0.000E+00 0.000E+00
BIGSUB   2        0   23.85095E+02 0.000E+00 0.000E+00 0.151E+01 0.481E+00 0.139E+03 0.000E+00 0.743E-06 0.000E+00 0.303E-01 0.725E-12 0.747E-09 0.747E-09 0.747E-09 0.747E-09 0.149E-08 0.303E-01 0.355E-03 0.100E-11 .00000E+00 0.000E+00 0.000E+00
BIGSUB   3        0   23.34257E+02 0.000E+00 0.000E+00 0.150E+01 0.551E+00 0.189E+03 0.000E+00 0.541E-04 0.000E+00 0.121E-01 0.139E-07 0.226E-06 0.367E-07 0.272E-05 0.205E-07 0.185E-08 0.120E-01 0.164E-03 0.100E-11 .00000E+00 0.000E+00 0.000E+00
BIGSUB   4        0   23.36293E+02 0.000E+00 0.000E+00 0.150E+01 0.527E+00 0.254E+03 0.000E+00 0.594E-04 0.000E+00 0.251E-01 0.152E-07 0.268E-06 0.434E-07 0.284E-05 0.265E-07 0.176E-08 0.251E-01 0.258E-03 0.100E-11 .00000E+00 0.000E+00 0.000E+00
BIGSUB   5        0   23.58984E+02 0.000E+00 0.000E+00 0.149E+01 0.522E+00 0.171E+03 0.000E+00 0.609E-06 0.000E+00 0.834E-02 0.120E-11 0.612E-09 0.612E-09 0.612E-09 0.612E-09 0.122E-08 0.834E-02 0.561E-04 0.100E-11 .00000E+00 0.000E+00 0.000E+00
BIGSUB   1        0   24.76460E+02 0.261E+01 0.000E+00 0.985E+00 0.407E+00 0.152E+03 0.000E+00 0.231E-02 0.000E+00 0.484E-01 0.802E-04 0.435E-03 0.597E-04 0.126E-02 0.702E-05 0.532E-05 0.461E-01 0.110E-02 0.100E-11 .14241E-02 0.326E-01 0.283E-03
BIGSUB   2        0   24.85095E+02 0.000E+00 0.000E+00 0.118E+01 0.368E+00 0.139E+03 0.000E+00 0.743E-06 0.000E+00 0.289E-01 0.725E-12 0.747E-09 0.747E-09 0.747E-09 0.747E-09 0.149E-08 0.289E-01 0.338E-03 0.100E-11 .00000E+00 0.000E+00 0.000E+00
BIGSUB   3        0   24.34257E+02 0.000E+00 0.000E+00 0.117E+01 0.414E+00 0.189E+03 0.000E+00 0.443E-04 0.000E+00 0.113E-01 0.113E-07 0.184E-06 0.301E-07 0.222E-05 0.169E-07 0.181E-08 0.113E-01 0.152E-03 0.100E-11 .00000E+00 0.000E+00 0.000E+00
BIGSUB   4        0   24.36293E+02 0.000E+00 0.000E+00 0.117E+01 0.392E+00 0.254E+03 0.000E+00 0.504E-04 0.000E+00 0.237E-01 0.129E-07 0.227E-06 0.369E-07 0.241E-05 0.226E-07 0.176E-08 0.236E-01 0.241E-03 0.100E-11 .00000E+00 0.000E+00 0.000E+00
BIGSUB   5        0   24.58984E+02 0.000E+00 0.000E+00 0.116E+01 0.390E+00 0.170E+03 0.000E+00 0.609E-06 0.000E+00 0.774E-02 0.828E-12 0.612E-09 0.612E-09 0.612E-09 0.612E-09 0.122E-08 0.774E-02 0.507E-04 0.100E-11 .00000E+00 0.000E+00 0.000E+00
BIGSUB   1        0   25.76460E+02 0.422E+01 0.000E+00 0.110E+01 0.451E+00 0.155E+03 0.000E+00 0.152E-01 0.000E+00 0.994E-01 0.224E-03 0.419E-03 0.637E-04 0.176E-02 0.123E-04 0.169E-04 0.842E-01 0.191E-02 0.100E-11 .45815E-02 0.149E-01 0.206E-02
BIGSUB   2        0   25.85095E+02 0.744E+01 0.000E+00 0.110E+01 0.495E+00 0.145E+03 0.000E+00 0.743E-06 0.000E+00 0.890E-01 0.725E-12 0.747E-09 0.747E-09 0.747E-09 0.747E-09 0.149E-08 0.890E-01 0.186E-02 0.100E-11 .00000E+00 0.000E+00 0.000E+00
BIGSUB   3        0   25.34257E+02 0.432E+01 0.000E+00 0.109E+01 0.584E+00 0.192E+03 0.000E+00 0.132E-01 0.000E+00 0.628E-01 0.104E-03 0.643E-03 0.838E-04 0.308E-02 0.118E-04 0.113E-04 0.496E-01 0.192E-02 0.100E-11 .13496E-01 0.315E-01 0.136E-02
BIGSUB   4        0   25.36293E+02 0.432E+01 0.000E+00 0.110E+01 0.633E+00 0.257E+03 0.000E+00 0.153E-01 0.000E+00 0.783E-01 0.689E-04 0.447E-03 0.632E-04 0.240E-02 0.130E-04 0.808E-05 0.630E-01 0.213E-02 0.100E-11 .12533E-01 0.185E-01 0.186E-02
BIGSUB   5        0   25.58984E+02 0.432E+01 0.000E+00 0.109E+01 0.535E+00 0.174E+03 0.000E+00 0.609E-06 0.000E+00 0.570E-01 0.632E-12 0.612E-09 0.612E-09 0.612E-09 0.612E-09 0.122E-08 0.570E-01 0.227E-02 0.100E-11 .00000E+00 0.000E+00 0.000E+00
BIGSUB   1        0   26.76460E+02 0.200E+02 0.000E+00 0.519E+00 0.265E+00 0.169E+03 0.000E+00 0.175E+01 0.000E+00 0.214E+01 0.108E-01 0.288E-01 0.356E-02 0.941E-02 0.529E-03 0.822E-03 0.388E+00 0.916E-02 0.100E-11 .11870E-01 0.285E+01 0.228E+00
BIGSUB   2        0   26.85095E+02 0.180E+02 0.000E+00 0.519E+00 0.292E+00 0.159E+03 0.000E+00 0.631E+00 0.000E+00 0.104E+01 0.547E-03 0.372E-02 0.463E-03 0.382E-02 0.205E-03 0.510E-04 0.407E+00 0.104E-01 0.100E-11 .35053E-02 0.168E+00 0.116E+00
BIGSUB   3        0   26.34257E+02 0.123E+02 0.000E+00 0.514E+00 0.345E+00 0.202E+03 0.000E+00 0.146E+00 0.000E+00 0.498E+00 0.102E-02 0.388E-02 0.500E-03 0.366E-02 0.600E-04 0.115E-03 0.352E+00 0.912E-02 0.100E-11 .19175E-01 0.266E+00 0.400E-01
BIGSUB   4        0   26.36293E+02 0.123E+02 0.000E+00 0.515E+00 0.391E+00 0.266E+03 0.000E+00 0.133E+00 0.000E+00 0.492E+00 0.658E-03 0.237E-02 0.329E-03 0.258E-02 0.494E-04 0.914E-04 0.359E+00 0.981E-02 0.100E-11 .18507E-01 0.151E+00 0.327E-01
BIGSUB   5        0   26.58984E+02 0.123E+02 0.000E+00 0.513E+00 0.338E+00 0.183E+03 0.000E+00 0.221E-01 0.000E+00 0.461E+00 0.529E-12 0.612E-09 0.612E-09 0.588E-03 0.133E-04 0.122E-08 0.439E+00 0.113E-01 0.100E-11 .58233E-04 0.000E+00 0.363E-01
BIGSUB   1        0   27.76460E+02 0.211E+01 0.000E+00 0.560E+00 0.279E+00 0.170E+03 0.000E+00 0.569E+00 0.000E+00 0.938E+00 0.128E-02 0.483E-02 0.598E-03 0.340E-02 0.205E-03 0.972E-04 0.369E+00 0.858E-02 0.100E-11 .19369E-01 0.221E+00 0.210E-02
BIGSUB   2        0   27.85095E+02 0.211E+01 0.000E+00 0.560E+00 0.307E+00 0.160E+03 0.000E+00 0.171E+00 0.000E+00 0.555E+00 0.176E-03 0.130E-02 0.162E-03 0.113E-02 0.607E-04 0.165E-04 0.384E+00 0.962E-02 0.100E-11 .00000E+00 0.000E+00 0.000E+00
BIGSUB   3        0   27.34257E+02 0.121E+01 0.000E+00 0.555E+00 0.363E+00 0.203E+03 0.000E+00 0.173E-01 0.000E+00 0.337E+00 0.818E-04 0.323E-03 0.429E-04 0.648E-03 0.101E-04 0.886E-05 0.320E+00 0.829E-02 0.100E-11 .32246E+00 0.862E-03 0.164E-02
BIGSUB   4        0   27.36293E+02 0.121E+01 0.000E+00 0.556E+00 0.410E+00 0.267E+03 0.000E+00 0.338E-02 0.000E+00 0.340E+00 0.208E-04 0.799E-04 0.114E-04 0.217E-03 0.316E-05 0.279E-05 0.337E+00 0.913E-02 0.100E-11 .30342E-03 0.000E+00 0.999E-03
BIGSUB   5        0   27.58984E+02 0.121E+01 0.000E+00 0.553E+00 0.353E+00 0.184E+03 0.000E+00 0.635E-02 0.000E+00 0.401E+00 0.500E-12 0.612E-09 0.612E-09 0.306E-03 0.691E-05 0.122E-08 0.395E+00 0.999E-02 0.100E-11 .00000E+00 0.000E+00 0.000E+00
BIGSUB   1        0   28.76460E+02 0.844E+01 0.000E+00 0.818E+00 0.377E+00 0.176E+03 0.000E+00 0.433E+00 0.000E+00 0.924E+00 0.216E-02 0.849E-02 0.106E-02 0.266E-02 0.166E-03 0.164E-03 0.491E+00 0.113E-01 0.100E-11 .91949E-02 0.809E+00 0.916E-01
BIGSUB   2        0   28.85095E+02 0.402E+01 0.000E+00 0.818E+00 0.419E+00 0.163E+03 0.000E+00 0.172E-01 0.000E+00 0.423E+00 0.586E-04 0.456E-03 0.566E-04 0.355E-03 0.191E-04 0.549E-05 0.405E+00 0.957E-02 0.100E-11 .00000E+00 0.000E+00 0.000E+00
BIGSUB   3        0   28.34257E+02 0.332E+01 0.000E+00 0.811E+00 0.500E+00 0.205E+03 0.000E+00 0.131E-01 0.000E+00 0.375E+00 0.942E-04 0.545E-03 0.706E-04 0.472E-03 0.123E-04 0.962E-05 0.362E+00 0.953E-02 0.100E-11 .30719E-01 0.245E-01 0.151E-02
BIGSUB   4        0   28.36293E+02 0.332E+01 0.000E+00 0.813E+00 0.564E+00 0.269E+03 0.000E+00 0.110E-01 0.000E+00 0.394E+00 0.687E-04 0.376E-03 0.516E-04 0.306E-03 0.108E-04 0.847E-05 0.383E+00 0.104E-01 0.100E-11 .15324E-01 0.142E-01 0.174E-02
BIGSUB   5        0   28.58984E+02 0.332E+01 0.000E+00 0.810E+00 0.481E+00 0.186E+03 0.000E+00 0.203E-02 0.000E+00 0.445E+00 0.500E-12 0.612E-09 0.612E-09 0.160E-03 0.360E-05 0.122E-08 0.443E+00 0.106E-01 0.100E-11 .00000E+00 0.000E+00 0.000E+00
BIGSUB   1        0   29.76460E+02 0.352E+01 0.000E+00 0.289E+00 0.186E+00 0.179E+03 0.000E+00 0.141E+00 0.000E+00 0.652E+00 0.491E-03 0.230E-02 0.293E-03 0.116E-02 0.752E-04 0.409E-04 0.511E+00 0.121E-01 0.100E-11 .34338E-02 0.876E-01 0.286E-02
BIGSUB   2        0   29.85095E+02 0.995E+01 0.000E+00 0.289E+00 0.199E+00 0.170E+03 0.000E+00 0.132E+00 0.000E+00 0.675E+00 0.103E-03 0.778E-03 0.966E-04 0.728E-03 0.532E-04 0.970E-05 0.542E+00 0.109E-01 0.100E-11 .78189E-03 0.279E-01 0.595E-01
BIGSUB   3        0   29.34257E+02 0.593E+01 0.000E+00 0.286E+00 0.222E+00 0.209E+03 0.000E+00 0.296E-01 0.000E+00 0.507E+00 0.296E-03 0.163E-02 0.209E-03 0.464E-03 0.204E-04 0.302E-04 0.477E+00 0.121E-01 0.100E-11 .16703E-01 0.107E+00 0.285E-02
BIGSUB   4        0   29.36293E+02 0.593E+01 0.000E+00 0.287E+00 0.246E+00 0.273E+03 0.000E+00 0.361E-01 0.000E+00 0.540E+00 0.197E-03 0.108E-02 0.147E-03 0.368E-03 0.201E-04 0.259E-04 0.504E+00 0.136E-01 0.100E-11 .15612E-01 0.668E-01 0.444E-02
BIGSUB   5        0   29.58984E+02 0.593E+01 0.000E+00 0.286E+00 0.222E+00 0.191E+03 0.000E+00 0.324E-06 0.000E+00 0.583E+00 0.500E-12 0.612E-09 0.612E-09 0.831E-04 0.188E-05 0.122E-08 0.583E+00 0.122E-01 0.100E-11 .00000E+00 0.000E+00 0.000E+00
BIGSUB   1        0   30.76460E+02 0.330E+02 0.000E+00 0.327E+00 0.200E+00 0.191E+03 0.000E+00 0.916E+01 0.000E+00 0.101E+02 0.323E-01 0.666E-01 0.819E-02 0.237E-01 0.282E-02 0.234E-02 0.931E+00 0.220E-01 0.100E-11 .13024E-01 0.563E+01 0.111E+01
BIGSUB   2        0   30.85095E+02 0.335E+02 0.000E+00 0.327E+00 0.215E+00 0.185E+03 0.000E+00 0.895E+01 0.000E+00 0.999E+01 0.250E-01 0.635E-01 0.831E-02 0.227E-01 0.279E-02 0.185E-02 0.104E+01 0.207E-01 0.100E-11 .13257E-01 0.420E+01 0.111E+01
BIGSUB   3        0   30.34257E+02 0.255E+02 0.000E+00 0.323E+00 0.245E+00 0.225E+03 0.000E+00 0.405E+01 0.000E+00 0.512E+01 0.128E-01 0.346E-01 0.445E-02 0.110E-01 0.128E-02 0.120E-02 0.107E+01 0.197E-01 0.100E-11 .41744E-01 0.231E+01 0.563E+00
BIGSUB   4        0   30.36293E+02 0.255E+02 0.000E+00 0.324E+00 0.273E+00 0.288E+03 0.000E+00 0.324E+01 0.000E+00 0.437E+01 0.640E-02 0.312E-01 0.400E-02 0.899E-02 0.121E-02 0.805E-03 0.114E+01 0.247E-01 0.100E-11 .43094E-01 0.198E+01 0.485E+00
BIGSUB   5        0   30.58984E+02 0.255E+02 0.000E+00 0.322E+00 0.244E+00 0.206E+03 0.000E+00 0.273E+01 0.000E+00 0.403E+01 0.296E-02 0.246E-02 0.339E-03 0.732E-02 0.841E-03 0.285E-03 0.130E+01 0.184E-01 0.100E-11 .70160E-02 0.544E-01 0.456E+00
BIGSUB   1        0   31.76460E+02 0.247E+02 0.000E+00 0.356E+00 0.211E+00 0.196E+03 0.272E+01 0.107E+02 0.000E+00 0.119E+02 0.317E-01 0.108E+00 0.133E-01 0.373E-01 0.330E-02 0.253E-02 0.118E+01 0.268E-01 0.100E-11 .14983E-01 0.834E+01 0.132E+01
BIGSUB   2        0   31.85095E+02 0.161E+02 0.000E+00 0.356E+00 0.228E+00 0.193E+03 0.000E+00 0.536E+01 0.000E+00 0.661E+01 0.889E-02 0.404E-01 0.508E-02 0.203E-01 0.164E-02 0.778E-03 0.125E+01 0.260E-01 0.100E-11 .12286E-01 0.206E+01 0.746E+00
BIGSUB   3        0   31.34257E+02 0.178E+02 0.000E+00 0.353E+00 0.262E+00 0.235E+03 0.000E+00 0.332E+01 0.000E+00 0.480E+01 0.667E-02 0.212E-01 0.272E-02 0.118E-01 0.103E-02 0.676E-03 0.148E+01 0.254E-01 0.100E-11 .46721E-01 0.115E+01 0.541E+00
BIGSUB   4        0   31.36293E+02 0.178E+02 0.000E+00 0.353E+00 0.295E+00 0.299E+03 0.000E+00 0.231E+01 0.000E+00 0.380E+01 0.328E-02 0.166E-01 0.212E-02 0.880E-02 0.898E-03 0.431E-03 0.148E+01 0.271E-01 0.100E-11 .36722E-01 0.772E+00 0.430E+00
BIGSUB   5        0   31.58984E+02 0.178E+02 0.000E+00 0.352E+00 0.261E+00 0.216E+03 0.000E+00 0.283E+01 0.000E+00 0.464E+01 0.299E-02 0.191E-02 0.271E-03 0.942E-02 0.872E-03 0.286E-03 0.181E+01 0.254E-01 0.100E-11 .77844E-02 0.264E-01 0.530E+00
BIGSUB   1        0   32.76460E+02 0.114E+02 0.000E+00 0.201E+00 0.154E+00 0.198E+03 0.305E+01 0.618E+01 0.000E+00 0.748E+01 0.146E-01 0.695E-01 0.862E-02 0.287E-01 0.198E-02 0.123E-02 0.130E+01 0.292E-01 0.100E-11 .18936E-01 0.547E+01 0.856E+00
BIGSUB   2        0   32.85095E+02 0.121E+02 0.000E+00 0.201E+00 0.160E+00 0.198E+03 0.154E+01 0.352E+01 0.000E+00 0.487E+01 0.412E-02 0.245E-01 0.306E-02 0.162E-01 0.110E-02 0.383E-03 0.135E+01 0.280E-01 0.100E-11 .79240E-02 0.974E+00 0.567E+00
BIGSUB   3        0   32.34257E+02 0.111E+02 0.000E+00 0.199E+00 0.170E+00 0.242E+03 0.000E+00 0.166E+01 0.000E+00 0.330E+01 0.312E-02 0.137E-01 0.173E-02 0.749E-02 0.533E-03 0.317E-03 0.164E+01 0.280E-01 0.100E-11 .75198E-01 0.795E+00 0.372E+00
BIGSUB   4        0   32.36293E+02 0.111E+02 0.000E+00 0.199E+00 0.180E+00 0.306E+03 0.000E+00 0.111E+01 0.000E+00 0.271E+01 0.166E-02 0.978E-02 0.125E-02 0.526E-02 0.427E-03 0.213E-03 0.160E+01 0.266E-01 0.100E-11 .34165E-01 0.512E+00 0.310E+00
BIGSUB   5        0   32.58984E+02 0.111E+02 0.000E+00 0.198E+00 0.170E+00 0.222E+03 0.000E+00 0.187E+01 0.000E+00 0.387E+01 0.218E-02 0.118E-02 0.172E-03 0.728E-02 0.583E-03 0.208E-03 0.200E+01 0.270E-01 0.100E-11 .70701E-02 0.125E-01 0.455E+00
BIGSUB   1        0   33.76460E+02 0.784E+01 0.000E+00 0.336E+00 0.203E+00 0.199E+03 0.292E+01 0.343E+01 0.000E+00 0.481E+01 0.656E-02 0.399E-01 0.497E-02 0.180E-01 0.114E-02 0.602E-03 0.138E+01 0.307E-01 0.100E-11 .16009E-01 0.266E+01 0.540E+00
BIGSUB   2        0   33.85095E+02 0.100E+02 0.000E+00 0.335E+00 0.219E+00 0.201E+03 0.231E+01 0.256E+01 0.000E+00 0.399E+01 0.286E-02 0.141E-01 0.176E-02 0.126E-01 0.809E-03 0.268E-03 0.143E+01 0.292E-01 0.100E-11 .69537E-02 0.458E+00 0.454E+00
BIGSUB   3        0   33.34257E+02 0.703E+01 0.000E+00 0.332E+00 0.250E+00 0.246E+03 0.125E+00 0.681E+00 0.000E+00 0.232E+01 0.146E-02 0.513E-02 0.657E-03 0.357E-02 0.229E-03 0.146E-03 0.164E+01 0.274E-01 0.100E-11 .51055E-01 0.263E+00 0.253E+00
BIGSUB   4        0   33.36293E+02 0.703E+01 0.000E+00 0.332E+00 0.280E+00 0.310E+03 0.293E+00 0.409E+00 0.000E+00 0.201E+01 0.822E-03 0.532E-02 0.679E-03 0.242E-02 0.171E-03 0.103E-03 0.160E+01 0.251E-01 0.100E-11 .31392E-01 0.266E+00 0.219E+00
BIGSUB   5        0   33.58984E+02 0.703E+01 0.000E+00 0.331E+00 0.249E+00 0.226E+03 0.000E+00 0.102E+01 0.000E+00 0.302E+01 0.135E-02 0.685E-03 0.101E-03 0.445E-02 0.330E-03 0.128E-03 0.199E+01 0.258E-01 0.100E-11 .61614E-02 0.643E-02 0.346E+00
BIGSUB   1        0   34.76460E+02 0.000E+00 0.000E+00 0.574E+00 0.192E+00 0.198E+03 0.730E+00 0.156E+01 0.000E+00 0.278E+01 0.230E-02 0.170E-01 0.211E-02 0.791E-02 0.504E-03 0.227E-03 0.122E+01 0.281E-01 0.100E-11 .00000E+00 0.000E+00 0.000E+00
BIGSUB   2        0   34.85095E+02 0.000E+00 0.000E+00 0.573E+00 0.213E+00 0.200E+03 0.527E+00 0.791E+00 0.000E+00 0.204E+01 0.850E-03 0.488E-02 0.608E-03 0.381E-02 0.242E-03 0.793E-04 0.125E+01 0.263E-01 0.100E-11 .00000E+00 0.000E+00 0.000E+00
BIGSUB   3        0   34.34257E+02 0.000E+00 0.000E+00 0.566E+00 0.259E+00 0.246E+03 0.211E-01 0.161E+00 0.000E+00 0.152E+01 0.223E-03 0.581E-03 0.792E-04 0.792E-03 0.500E-04 0.214E-04 0.136E+01 0.230E-01 0.100E-11 .00000E+00 0.000E+00 0.000E+00
BIGSUB   4        0   34.36293E+02 0.000E+00 0.000E+00 0.567E+00 0.279E+00 0.310E+03 0.525E-01 0.518E-01 0.000E+00 0.144E+01 0.587E-04 0.453E-03 0.585E-04 0.299E-03 0.205E-04 0.682E-05 0.139E+01 0.221E-01 0.100E-11 .00000E+00 0.000E+00 0.000E+00
BIGSUB   5        0   34.58984E+02 0.000E+00 0.000E+00 0.563E+00 0.223E+00 0.226E+03 0.000E+00 0.558E+00 0.000E+00 0.219E+01 0.686E-03 0.344E-03 0.507E-04 0.220E-02 0.163E-03 0.652E-04 0.163E+01 0.210E-01 0.100E-11 .00000E+00 0.000E+00 0.000E+00
BIGSUB   1        0   35.76460E+02 0.000E+00 0.000E+00 0.570E+00 0.189E+00 0.197E+03 0.220E+00 0.716E+00 0.000E+00 0.179E+01 0.104E-02 0.823E-02 0.102E-02 0.363E-02 0.234E-03 0.104E-03 0.107E+01 0.255E-01 0.100E-11 .00000E+00 0.000E+00 0.000E+00
BIGSUB   2        0   35.85095E+02 0.764E+01 0.000E+00 0.123E-01 0.122E-01 0.202E+03 0.207E+01 0.101E+01 0.000E+00 0.233E+01 0.103E-02 0.710E-02 0.882E-03 0.694E-02 0.328E-03 0.976E-04 0.132E+01 0.272E-01 0.100E-11 .39246E-02 0.373E+00 0.258E+00
BIGSUB   3        0   35.34257E+02 0.734E+01 0.000E+00 0.128E-01 0.128E-01 0.250E+03 0.432E+00 0.531E+00 0.000E+00 0.194E+01 0.751E-03 0.199E-02 0.265E-03 0.368E-02 0.194E-03 0.768E-04 0.140E+01 0.231E-01 0.100E-11 .46809E-01 0.735E-01 0.207E+00
BIGSUB   4        0   35.36293E+02 0.734E+01 0.000E+00 0.129E-01 0.128E-01 0.313E+03 0.723E+00 0.419E+00 0.000E+00 0.186E+01 0.427E-03 0.310E-02 0.403E-03 0.311E-02 0.183E-03 0.504E-04 0.144E+01 0.216E-01 0.100E-11 .24127E-01 0.126E+00 0.202E+00
BIGSUB   5        0   35.58984E+02 0.734E+01 0.000E+00 0.131E-01 0.131E-01 0.231E+03 0.000E+00 0.561E+00 0.000E+00 0.225E+01 0.797E-03 0.406E-03 0.596E-04 0.298E-02 0.177E-03 0.761E-04 0.169E+01 0.205E-01 0.100E-11 .20030E-02 0.441E-02 0.252E+00
BIGSUB   1        0   36.76460E+02 0.000E+00 0.000E+00 0.126E+01 0.418E+00 0.197E+03 0.789E-01 0.334E+00 0.000E+00 0.127E+01 0.487E-03 0.403E-02 0.500E-03 0.169E-02 0.110E-03 0.490E-04 0.941E+00 0.231E-01 0.100E-11 .00000E+00 0.000E+00 0.000E+00
BIGSUB   2        0   36.85095E+02 0.482E+01 0.000E+00 0.876E+00 0.427E+00 0.202E+03 0.208E+01 0.459E+00 0.000E+00 0.180E+01 0.539E-03 0.402E-02 0.499E-03 0.337E-02 0.162E-03 0.511E-04 0.134E+01 0.273E-01 0.100E-11 .34929E-02 0.212E+00 0.190E+00
BIGSUB   3        0   36.34257E+02 0.281E+01 0.000E+00 0.868E+00 0.508E+00 0.251E+03 0.369E+00 0.106E+00 0.000E+00 0.141E+01 0.198E-03 0.651E-03 0.870E-04 0.823E-03 0.466E-04 0.198E-04 0.130E+01 0.213E-01 0.100E-11 .30038E+00 0.400E-01 0.101E+00
BIGSUB   4        0   36.36293E+02 0.281E+01 0.000E+00 0.870E+00 0.565E+00 0.314E+03 0.530E+00 0.169E-01 0.000E+00 0.138E+01 0.624E-04 0.529E-03 0.708E-04 0.455E-03 0.293E-04 0.659E-05 0.136E+01 0.203E-01 0.100E-11 .55026E-01 0.738E-02 0.630E-01
BIGSUB   5        0   36.58984E+02 0.281E+01 0.000E+00 0.866E+00 0.478E+00 0.232E+03 0.157E-01 0.249E+00 0.000E+00 0.179E+01 0.410E-03 0.205E-03 0.302E-04 0.143E-02 0.847E-04 0.391E-04 0.154E+01 0.182E-01 0.100E-11 .16345E+01 0.391E-01 0.136E+00
BIGSUB   1        0   37.76460E+02 0.000E+00 0.000E+00 0.130E+01 0.429E+00 0.196E+03 0.316E-01 0.158E+00 0.000E+00 0.985E+00 0.231E-03 0.198E-02 0.245E-03 0.798E-03 0.521E-04 0.233E-04 0.827E+00 0.211E-01 0.100E-11 .00000E+00 0.000E+00 0.000E+00
BIGSUB   2        0   37.85095E+02 0.000E+00 0.000E+00 0.130E+01 0.466E+00 0.201E+03 0.572E+00 0.157E+00 0.000E+00 0.134E+01 0.178E-03 0.141E-02 0.175E-03 0.102E-02 0.483E-04 0.169E-04 0.119E+01 0.250E-01 0.100E-11 .00000E+00 0.000E+00 0.000E+00
BIGSUB   3        0   37.34257E+02 0.000E+00 0.000E+00 0.128E+01 0.553E+00 0.251E+03 0.118E+00 0.411E-01 0.000E+00 0.114E+01 0.358E-04 0.143E-03 0.208E-04 0.248E-03 0.143E-04 0.323E-05 0.109E+01 0.182E-01 0.100E-11 .00000E+00 0.000E+00 0.000E+00
BIGSUB   4        0   37.36293E+02 0.000E+00 0.000E+00 0.129E+01 0.574E+00 0.314E+03 0.652E-01 0.129E-01 0.000E+00 0.120E+01 0.618E-05 0.729E-04 0.103E-04 0.951E-04 0.577E-05 0.459E-06 0.118E+01 0.180E-01 0.100E-11 .00000E+00 0.000E+00 0.000E+00
BIGSUB   5        0   37.58984E+02 0.000E+00 0.000E+00 0.128E+01 0.456E+00 0.232E+03 0.506E-01 0.146E+00 0.000E+00 0.142E+01 0.212E-03 0.105E-03 0.155E-04 0.721E-03 0.427E-04 0.202E-04 0.127E+01 0.150E-01 0.100E-11 .00000E+00 0.000E+00 0.000E+00
BIGSUB   1        0   38.76460E+02 0.000E+00 0.000E+00 0.807E+00 0.268E+00 0.196E+03 0.134E-01 0.750E-01 0.000E+00 0.806E+00 0.111E-03 0.972E-03 0.121E-03 0.380E-03 0.249E-04 0.112E-04 0.731E+00 0.193E-01 0.100E-11 .00000E+00 0.000E+00 0.000E+00
BIGSUB   2        0   38.85095E+02 0.181E+01 0.000E+00 0.388E+00 0.244E+00 0.201E+03 0.535E+00 0.225E-01 0.000E+00 0.111E+01 0.601E-04 0.494E-03 0.613E-04 0.327E-03 0.156E-04 0.572E-05 0.109E+01 0.233E-01 0.100E-11 .00000E+00 0.000E+00 0.000E+00
BIGSUB   3        0   38.34257E+02 0.201E+00 0.000E+00 0.383E+00 0.255E+00 0.250E+03 0.393E-01 0.142E-01 0.000E+00 0.933E+00 0.112E-04 0.817E-04 0.123E-04 0.125E-03 0.765E-05 0.848E-06 0.919E+00 0.156E-01 0.100E-11 .00000E+00 0.000E+00 0.000E+00
BIGSUB   4        0   38.36293E+02 0.201E+00 0.000E+00 0.384E+00 0.272E+00 0.314E+03 0.923E-02 0.628E-02 0.000E+00 0.104E+01 0.229E-05 0.382E-04 0.569E-05 0.542E-04 0.328E-05 0.503E-07 0.103E+01 0.160E-01 0.100E-11 .00000E+00 0.000E+00 0.000E+00
BIGSUB   5        0   38.58984E+02 0.201E+00 0.000E+00 0.382E+00 0.243E+00 0.232E+03 0.223E-01 0.518E-01 0.000E+00 0.110E+01 0.110E-03 0.545E-04 0.805E-05 0.371E-03 0.219E-04 0.105E-04 0.105E+01 0.123E-01 0.100E-11 .00000E+00 0.000E+00 0.000E+00
BIGSUB   1        0   39.76460E+02 0.000E+00 0.000E+00 0.533E+00 0.178E+00 0.196E+03 0.584E-02 0.359E-01 0.000E+00 0.686E+00 0.533E-04 0.478E-03 0.592E-04 0.182E-03 0.120E-04 0.540E-05 0.650E+00 0.177E-01 0.100E-11 .00000E+00 0.000E+00 0.000E+00
BIGSUB   2        0   39.85095E+02 0.000E+00 0.000E+00 0.533E+00 0.196E+00 0.201E+03 0.155E+00 0.164E-01 0.000E+00 0.974E+00 0.206E-04 0.174E-03 0.215E-04 0.108E-03 0.515E-05 0.196E-05 0.958E+00 0.213E-01 0.100E-11 .00000E+00 0.000E+00 0.000E+00
BIGSUB   3        0   39.34257E+02 0.000E+00 0.000E+00 0.526E+00 0.231E+00 0.250E+03 0.152E-01 0.145E-01 0.000E+00 0.787E+00 0.573E-05 0.626E-04 0.949E-05 0.855E-04 0.540E-05 0.357E-06 0.773E+00 0.134E-01 0.100E-11 .00000E+00 0.000E+00 0.000E+00
BIGSUB   4        0   39.36293E+02 0.000E+00 0.000E+00 0.527E+00 0.242E+00 0.313E+03 0.145E-02 0.569E-02 0.000E+00 0.910E+00 0.167E-05 0.302E-04 0.455E-05 0.430E-04 0.261E-05 0.111E-07 0.904E+00 0.143E-01 0.100E-11 .00000E+00 0.000E+00 0.000E+00
BIGSUB   5        0   39.58984E+02 0.000E+00 0.000E+00 0.523E+00 0.193E+00 0.231E+03 0.984E-02 0.389E-01 0.000E+00 0.905E+00 0.572E-04 0.283E-04 0.418E-05 0.192E-03 0.114E-04 0.544E-05 0.866E+00 0.102E-01 0.100E-11 .00000E+00 0.000E+00 0.000E+00
BIGSUB   1        0   40.76460E+02 0.000E+00 0.000E+00 0.108E+01 0.361E+00 0.195E+03 0.258E-02 0.173E-01 0.000E+00 0.600E+00 0.258E-04 0.235E-03 0.291E-04 0.877E-04 0.580E-05 0.262E-05 0.582E+00 0.164E-01 0.100E-11 .00000E+00 0.000E+00 0.000E+00
BIGSUB   2        0   40.85095E+02 0.000E+00 0.000E+00 0.108E+01 0.392E+00 0.200E+03 0.526E-01 0.550E-02 0.000E+00 0.853E+00 0.711E-05 0.610E-04 0.756E-05 0.362E-04 0.174E-05 0.678E-06 0.847E+00 0.195E-01 0.100E-11 .00000E+00 0.000E+00 0.000E+00
BIGSUB   3        0   40.34257E+02 0.000E+00 0.000E+00 0.107E+01 0.466E+00 0.250E+03 0.639E-02 0.111E-01 0.000E+00 0.663E+00 0.390E-05 0.504E-04 0.765E-05 0.659E-04 0.421E-05 0.218E-06 0.651E+00 0.116E-01 0.100E-11 .00000E+00 0.000E+00 0.000E+00
BIGSUB   4        0   40.36293E+02 0.000E+00 0.000E+00 0.107E+01 0.484E+00 0.313E+03 0.242E-03 0.476E-02 0.000E+00 0.798E+00 0.138E-05 0.254E-04 0.382E-05 0.360E-04 0.219E-05 0.625E-08 0.793E+00 0.129E-01 0.100E-11 .00000E+00 0.000E+00 0.000E+00
BIGSUB   5        0   40.58984E+02 0.000E+00 0.000E+00 0.107E+01 0.386E+00 0.231E+03 0.434E-02 0.202E-01 0.000E+00 0.736E+00 0.297E-04 0.148E-04 0.218E-05 0.997E-04 0.590E-05 0.283E-05 0.716E+00 0.837E-02 0.100E-11 .00000E+00 0.000E+00 0.000E+00
BIGSUB   1        0   41.76460E+02 0.000E+00 0.000E+00 0.981E+00 0.329E+00 0.195E+03 0.114E-02 0.839E-02 0.000E+00 0.533E+00 0.125E-04 0.115E-03 0.143E-04 0.425E-04 0.282E-05 0.127E-05 0.525E+00 0.152E-01 0.100E-11 .00000E+00 0.000E+00 0.000E+00
BIGSUB   2        0   41.85095E+02 0.000E+00 0.000E+00 0.980E+00 0.358E+00 0.200E+03 0.202E-01 0.186E-02 0.000E+00 0.755E+00 0.247E-05 0.215E-04 0.266E-05 0.123E-04 0.592E-06 0.236E-06 0.753E+00 0.179E-01 0.100E-11 .00000E+00 0.000E+00 0.000E+00
BIGSUB   3        0   41.34257E+02 0.000E+00 0.000E+00 0.970E+00 0.427E+00 0.249E+03 0.277E-02 0.893E-02 0.000E+00 0.560E+00 0.300E-05 0.409E-04 0.621E-05 0.528E-04 0.338E-05 0.161E-06 0.551E+00 0.101E-01 0.100E-11 .00000E+00 0.000E+00 0.000E+00
BIGSUB   4        0   41.36293E+02 0.000E+00 0.000E+00 0.972E+00 0.447E+00 0.312E+03 0.452E-04 0.403E-02 0.000E+00 0.703E+00 0.117E-05 0.215E-04 0.323E-05 0.305E-04 0.185E-05 0.541E-08 0.699E+00 0.116E-01 0.100E-11 .00000E+00 0.000E+00 0.000E+00
BIGSUB   5        0   41.58984E+02 0.000E+00 0.000E+00 0.967E+00 0.357E+00 0.231E+03 0.191E-02 0.105E-01 0.000E+00 0.604E+00 0.155E-04 0.768E-05 0.113E-05 0.519E-04 0.307E-05 0.148E-05 0.593E+00 0.691E-02 0.100E-11 .00000E+00 0.000E+00 0.000E+00
BIGSUB   1        0   42.76460E+02 0.000E+00 0.000E+00 0.930E+00 0.312E+00 0.195E+03 0.506E-03 0.408E-02 0.000E+00 0.480E+00 0.609E-05 0.568E-04 0.703E-05 0.206E-04 0.137E-05 0.621E-06 0.476E+00 0.142E-01 0.100E-11 .00000E+00 0.000E+00 0.000E+00
BIGSUB   2        0   42.85095E+02 0.000E+00 0.000E+00 0.929E+00 0.340E+00 0.200E+03 0.828E-02 0.638E-03 0.000E+00 0.674E+00 0.860E-06 0.755E-05 0.935E-06 0.423E-05 0.204E-06 0.826E-07 0.673E+00 0.166E-01 0.100E-11 .00000E+00 0.000E+00 0.000E+00
BIGSUB   3        0   42.34257E+02 0.000E+00 0.000E+00 0.919E+00 0.403E+00 0.249E+03 0.122E-02 0.724E-02 0.000E+00 0.476E+00 0.240E-05 0.333E-04 0.506E-05 0.428E-04 0.274E-05 0.127E-06 0.468E+00 0.883E-02 0.100E-11 .00000E+00 0.000E+00 0.000E+00
BIGSUB   4        0   42.36293E+02 0.000E+00 0.000E+00 0.921E+00 0.421E+00 0.312E+03 0.747E-05 0.341E-02 0.000E+00 0.620E+00 0.989E-06 0.182E-04 0.274E-05 0.258E-04 0.157E-05 0.485E-08 0.617E+00 0.105E-01 0.100E-11 .00000E+00 0.000E+00 0.000E+00
BIGSUB   5        0   42.58984E+02 0.000E+00 0.000E+00 0.916E+00 0.336E+00 0.230E+03 0.845E-03 0.547E-02 0.000E+00 0.499E+00 0.807E-05 0.400E-05 0.590E-06 0.270E-04 0.160E-05 0.769E-06 0.493E+00 0.572E-02 0.100E-11 .00000E+00 0.000E+00 0.000E+00
BIGSUB   1        0   43.76460E+02 0.000E+00 0.000E+00 0.912E+00 0.306E+00 0.195E+03 0.225E-03 0.199E-02 0.000E+00 0.437E+00 0.298E-05 0.279E-04 0.346E-05 0.101E-04 0.670E-06 0.303E-06 0.435E+00 0.133E-01 0.100E-11 .00000E+00 0.000E+00 0.000E+00
BIGSUB   2        0   43.85095E+02 0.000E+00 0.000E+00 0.911E+00 0.332E+00 0.199E+03 0.357E-02 0.220E-03 0.000E+00 0.606E+00 0.301E-06 0.265E-05 0.329E-06 0.146E-05 0.706E-07 0.292E-07 0.606E+00 0.153E-01 0.100E-11 .00000E+00 0.000E+00 0.000E+00
BIGSUB   3        0   43.34257E+02 0.000E+00 0.000E+00 0.900E+00 0.393E+00 0.248E+03 0.538E-03 0.589E-02 0.000E+00 0.406E+00 0.194E-05 0.272E-04 0.412E-05 0.348E-04 0.223E-05 0.102E-06 0.400E+00 0.777E-02 0.100E-11 .00000E+00 0.000E+00 0.000E+00
BIGSUB   4        0   43.36293E+02 0.000E+00 0.000E+00 0.902E+00 0.408E+00 0.312E+03 0.136E-05 0.289E-02 0.000E+00 0.550E+00 0.837E-06 0.154E-04 0.232E-05 0.218E-04 0.133E-05 0.437E-08 0.547E+00 0.952E-02 0.100E-11 .00000E+00 0.000E+00 0.000E+00
BIGSUB   5        0   43.58984E+02 0.000E+00 0.000E+00 0.897E+00 0.326E+00 0.230E+03 0.373E-03 0.285E-02 0.000E+00 0.414E+00 0.420E-05 0.208E-05 0.308E-06 0.141E-04 0.833E-06 0.401E-06 0.411E+00 0.475E-02 0.100E-11 .00000E+00 0.000E+00 0.000E+00
BIGSUB   1        0   44.76460E+02 0.000E+00 0.000E+00 0.905E+00 0.304E+00 0.194E+03 0.100E-03 0.971E-03 0.000E+00 0.400E+00 0.146E-05 0.137E-04 0.170E-05 0.491E-05 0.328E-06 0.149E-06 0.399E+00 0.125E-01 0.100E-11 .00000E+00 0.000E+00 0.000E+00
BIGSUB   2        0   44.85095E+02 0.000E+00 0.000E+00 0.904E+00 0.329E+00 0.199E+03 0.157E-02 0.766E-04 0.000E+00 0.549E+00 0.105E-06 0.934E-06 0.116E-06 0.507E-06 0.247E-07 0.108E-07 0.549E+00 0.143E-01 0.100E-11 .00000E+00 0.000E+00 0.000E+00
BIGSUB   3        0   44.34257E+02 0.000E+00 0.000E+00 0.894E+00 0.389E+00 0.248E+03 0.238E-03 0.480E-02 0.000E+00 0.348E+00 0.158E-05 0.221E-04 0.336E-05 0.284E-04 0.182E-05 0.837E-07 0.343E+00 0.689E-02 0.100E-11 .00000E+00 0.000E+00 0.000E+00
BIGSUB   4        0   44.36293E+02 0.000E+00 0.000E+00 0.896E+00 0.403E+00 0.311E+03 0.000E+00 0.244E-02 0.000E+00 0.489E+00 0.709E-06 0.130E-04 0.196E-05 0.185E-04 0.112E-05 0.397E-08 0.487E+00 0.868E-02 0.100E-11 .00000E+00 0.000E+00 0.000E+00
BIGSUB   5        0   44.58984E+02 0.000E+00 0.000E+00 0.890E+00 0.322E+00 0.230E+03 0.164E-03 0.148E-02 0.000E+00 0.346E+00 0.219E-05 0.109E-05 0.160E-06 0.732E-05 0.434E-06 0.209E-06 0.344E+00 0.395E-02 0.100E-11 .00000E+00 0.000E+00 0.000E+00
BIGSUB   1        0   45.76460E+02 0.000E+00 0.000E+00 0.130E+01 0.440E+00 0.194E+03 0.444E-04 0.475E-03 0.000E+00 0.369E+00 0.713E-06 0.676E-05 0.837E-06 0.240E-05 0.161E-06 0.729E-07 0.368E+00 0.117E-01 0.100E-11 .00000E+00 0.000E+00 0.000E+00
BIGSUB   2        0   45.85095E+02 0.000E+00 0.000E+00 0.130E+01 0.479E+00 0.199E+03 0.694E-03 0.268E-04 0.000E+00 0.500E+00 0.369E-07 0.329E-06 0.411E-07 0.177E-06 0.878E-08 0.437E-08 0.500E+00 0.133E-01 0.100E-11 .00000E+00 0.000E+00 0.000E+00
BIGSUB   3        0   45.34257E+02 0.000E+00 0.000E+00 0.129E+01 0.570E+00 0.248E+03 0.104E-03 0.391E-02 0.000E+00 0.300E+00 0.129E-05 0.180E-04 0.274E-05 0.231E-04 0.148E-05 0.684E-07 0.296E+00 0.614E-02 0.100E-11 .00000E+00 0.000E+00 0.000E+00
BIGSUB   4        0   45.36293E+02 0.000E+00 0.000E+00 0.129E+01 0.595E+00 0.311E+03 0.000E+00 0.207E-02 0.000E+00 0.436E+00 0.600E-06 0.110E-04 0.166E-05 0.157E-04 0.951E-06 0.364E-08 0.434E+00 0.794E-02 0.100E-11 .00000E+00 0.000E+00 0.000E+00
BIGSUB   5        0   45.58984E+02 0.000E+00 0.000E+00 0.128E+01 0.477E+00 0.229E+03 0.723E-04 0.773E-03 0.000E+00 0.290E+00 0.114E-05 0.566E-06 0.837E-07 0.381E-05 0.226E-06 0.109E-06 0.289E+00 0.330E-02 0.100E-11 .00000E+00 0.000E+00 0.000E+00
BIGSUB   1        0   46.76460E+02 0.000E+00 0.000E+00 0.136E+01 0.461E+00 0.193E+03 0.197E-04 0.233E-03 0.000E+00 0.342E+00 0.349E-06 0.332E-05 0.412E-06 0.118E-05 0.788E-07 0.360E-07 0.342E+00 0.111E-01 0.100E-11 .00000E+00 0.000E+00 0.000E+00
BIGSUB   2        0   46.85095E+02 0.000E+00 0.000E+00 0.136E+01 0.503E+00 0.198E+03 0.310E-03 0.954E-05 0.000E+00 0.458E+00 0.129E-07 0.116E-06 0.147E-07 0.619E-07 0.337E-08 0.211E-08 0.458E+00 0.125E-01 0.100E-11 .00000E+00 0.000E+00 0.000E+00
BIGSUB   3        0   46.34257E+02 0.000E+00 0.000E+00 0.135E+01 0.598E+00 0.247E+03 0.457E-04 0.318E-02 0.000E+00 0.260E+00 0.105E-05 0.147E-04 0.223E-05 0.188E-04 0.120E-05 0.560E-07 0.257E+00 0.550E-02 0.100E-11 .00000E+00 0.000E+00 0.000E+00
BIGSUB   4        0   46.36293E+02 0.000E+00 0.000E+00 0.135E+01 0.626E+00 0.310E+03 0.000E+00 0.175E-02 0.000E+00 0.391E+00 0.509E-06 0.935E-05 0.141E-05 0.133E-04 0.806E-06 0.335E-08 0.389E+00 0.729E-02 0.100E-11 .00000E+00 0.000E+00 0.000E+00
BIGSUB   5        0   46.58984E+02 0.000E+00 0.000E+00 0.134E+01 0.502E+00 0.229E+03 0.319E-04 0.403E-03 0.000E+00 0.245E+00 0.594E-06 0.295E-06 0.438E-07 0.199E-05 0.118E-06 0.572E-07 0.244E+00 0.278E-02 0.100E-11 .00000E+00 0.000E+00 0.000E+00
BIGSUB   1        0   47.76460E+02 0.000E+00 0.000E+00 0.594E+00 0.201E+00 0.193E+03 0.869E-05 0.114E-03 0.000E+00 0.318E+00 0.171E-06 0.164E-05 0.203E-06 0.577E-06 0.387E-07 0.180E-07 0.318E+00 0.105E-01 0.100E-11 .00000E+00 0.000E+00 0.000E+00
BIGSUB   2        0   47.85095E+02 0.000E+00 0.000E+00 0.593E+00 0.219E+00 0.198E+03 0.138E-03 0.364E-05 0.000E+00 0.422E+00 0.455E-08 0.411E-07 0.547E-08 0.218E-07 0.147E-08 0.149E-08 0.422E+00 0.118E-01 0.100E-11 .00000E+00 0.000E+00 0.000E+00
BIGSUB   3        0   47.34257E+02 0.000E+00 0.000E+00 0.586E+00 0.260E+00 0.247E+03 0.199E-04 0.259E-02 0.000E+00 0.226E+00 0.855E-06 0.120E-04 0.182E-05 0.154E-04 0.981E-06 0.458E-07 0.224E+00 0.496E-02 0.100E-11 .00000E+00 0.000E+00 0.000E+00
BIGSUB   4        0   47.36293E+02 0.000E+00 0.000E+00 0.587E+00 0.272E+00 0.310E+03 0.000E+00 0.149E-02 0.000E+00 0.352E+00 0.431E-06 0.792E-05 0.119E-05 0.112E-04 0.682E-06 0.310E-08 0.350E+00 0.672E-02 0.100E-11 .00000E+00 0.000E+00 0.000E+00
BIGSUB   5        0   47.58984E+02 0.000E+00 0.000E+00 0.583E+00 0.218E+00 0.228E+03 0.148E-04 0.210E-03 0.000E+00 0.207E+00 0.309E-06 0.154E-06 0.230E-07 0.103E-05 0.616E-07 0.301E-07 0.207E+00 0.234E-02 0.100E-11 .00000E+00 0.000E+00 0.000E+00
BIGSUB   1        0   48.76460E+02 0.000E+00 0.000E+00 0.116E+01 0.393E+00 0.193E+03 0.366E-05 0.561E-04 0.000E+00 0.298E+00 0.842E-07 0.804E-06 0.999E-07 0.283E-06 0.192E-07 0.921E-08 0.297E+00 0.994E-02 0.100E-11 .00000E+00 0.000E+00 0.000E+00
BIGSUB   2        0   48.85095E+02 0.000E+00 0.000E+00 0.116E+01 0.428E+00 0.197E+03 0.617E-04 0.156E-05 0.000E+00 0.391E+00 0.160E-08 0.147E-07 0.221E-08 0.794E-08 0.801E-09 0.149E-08 0.391E+00 0.111E-01 0.100E-11 .00000E+00 0.000E+00 0.000E+00
BIGSUB   3        0   48.34257E+02 0.000E+00 0.000E+00 0.114E+01 0.509E+00 0.246E+03 0.914E-05 0.211E-02 0.000E+00 0.199E+00 0.697E-06 0.976E-05 0.148E-05 0.125E-04 0.799E-06 0.376E-07 0.196E+00 0.450E-02 0.100E-11 .00000E+00 0.000E+00 0.000E+00
BIGSUB   4        0   48.36293E+02 0.000E+00 0.000E+00 0.115E+01 0.532E+00 0.309E+03 0.000E+00 0.126E-02 0.000E+00 0.317E+00 0.365E-06 0.671E-05 0.101E-05 0.951E-05 0.578E-06 0.290E-08 0.316E+00 0.621E-02 0.100E-11 .00000E+00 0.000E+00 0.000E+00
BIGSUB   5        0   48.58984E+02 0.000E+00 0.000E+00 0.114E+01 0.427E+00 0.228E+03 0.622E-05 0.110E-03 0.000E+00 0.177E+00 0.161E-06 0.802E-07 0.121E-07 0.539E-06 0.323E-07 0.160E-07 0.177E+00 0.199E-02 0.100E-11 .00000E+00 0.000E+00 0.000E+00
BIGSUB   1        0   49.76460E+02 0.000E+00 0.000E+00 0.139E+01 0.472E+00 0.192E+03 0.000E+00 0.277E-04 0.000E+00 0.279E+00 0.414E-07 0.396E-06 0.493E-07 0.139E-06 0.960E-08 0.487E-08 0.279E+00 0.945E-02 0.100E-11 .00000E+00 0.000E+00 0.000E+00
BIGSUB   2        0   49.85095E+02 0.000E+00 0.000E+00 0.139E+01 0.513E+00 0.197E+03 0.268E-04 0.833E-06 0.000E+00 0.364E+00 0.562E-09 0.547E-08 0.106E-08 0.308E-08 0.747E-09 0.149E-08 0.364E+00 0.105E-01 0.100E-11 .00000E+00 0.000E+00 0.000E+00
BIGSUB   3        0   49.34257E+02 0.000E+00 0.000E+00 0.138E+01 0.607E+00 0.246E+03 0.430E-05 0.172E-02 0.000E+00 0.175E+00 0.568E-06 0.795E-05 0.121E-05 0.102E-04 0.651E-06 0.309E-07 0.173E+00 0.411E-02 0.100E-11 .00000E+00 0.000E+00 0.000E+00
BIGSUB   4        0   49.36293E+02 0.000E+00 0.000E+00 0.138E+01 0.630E+00 0.309E+03 0.000E+00 0.107E-02 0.000E+00 0.288E+00 0.309E-06 0.568E-05 0.856E-06 0.806E-05 0.490E-06 0.272E-08 0.287E+00 0.576E-02 0.100E-11 .00000E+00 0.000E+00 0.000E+00
BIGSUB   5        0   49.58984E+02 0.000E+00 0.000E+00 0.137E+01 0.506E+00 0.228E+03 0.000E+00 0.572E-04 0.000E+00 0.152E+00 0.839E-07 0.419E-07 0.647E-08 0.281E-06 0.170E-07 0.864E-08 0.151E+00 0.169E-02 0.100E-11 .00000E+00 0.000E+00 0.000E+00
BIGSUB   1        0   50.76460E+02 0.000E+00 0.000E+00 0.107E+01 0.367E+00 0.192E+03 0.000E+00 0.138E-04 0.000E+00 0.263E+00 0.203E-07 0.195E-06 0.244E-07 0.685E-07 0.489E-08 0.274E-08 0.263E+00 0.899E-02 0.100E-11 .00000E+00 0.000E+00 0.000E+00
BIGSUB   2        0   50.85095E+02 0.000E+00 0.000E+00 0.107E+01 0.403E+00 0.197E+03 0.122E-04 0.743E-06 0.000E+00 0.340E+00 0.198E-09 0.221E-08 0.747E-09 0.137E-08 0.747E-09 0.149E-08 0.340E+00 0.994E-02 0.100E-11 .00000E+00 0.000E+00 0.000E+00
BIGSUB   3        0   50.34257E+02 0.000E+00 0.000E+00 0.106E+01 0.481E+00 0.245E+03 0.000E+00 0.140E-02 0.000E+00 0.155E+00 0.463E-06 0.648E-05 0.985E-06 0.831E-05 0.530E-06 0.255E-07 0.154E+00 0.376E-02 0.100E-11 .00000E+00 0.000E+00 0.000E+00
BIGSUB   4        0   50.36293E+02 0.000E+00 0.000E+00 0.106E+01 0.508E+00 0.308E+03 0.000E+00 0.902E-03 0.000E+00 0.262E+00 0.262E-06 0.481E-05 0.725E-06 0.682E-05 0.415E-06 0.258E-08 0.261E+00 0.536E-02 0.100E-11 .00000E+00 0.000E+00 0.000E+00
BIGSUB   5        0   50.58984E+02 0.000E+00 0.000E+00 0.106E+01 0.409E+00 0.227E+03 0.000E+00 0.300E-04 0.000E+00 0.131E+00 0.437E-07 0.220E-07 0.352E-08 0.147E-06 0.899E-08 0.481E-08 0.131E+00 0.145E-02 0.100E-11 .00000E+00 0.000E+00 0.000E+00
BIGSUB   1        0   51.76460E+02 0.000E+00 0.000E+00 0.198E+01 0.691E+00 0.191E+03 0.000E+00 0.695E-05 0.000E+00 0.248E+00 0.999E-08 0.961E-07 0.122E-07 0.338E-07 0.258E-08 0.169E-08 0.248E+00 0.856E-02 0.100E-11 .00000E+00 0.000E+00 0.000E+00
BIGSUB   2        0   51.85095E+02 0.000E+00 0.000E+00 0.198E+01 0.753E+00 0.196E+03 0.503E-05 0.743E-06 0.000E+00 0.318E+00 0.700E-10 0.106E-08 0.747E-09 0.765E-09 0.747E-09 0.149E-08 0.318E+00 0.944E-02 0.100E-11 .00000E+00 0.000E+00 0.000E+00
BIGSUB   3        0   51.34257E+02 0.000E+00 0.000E+00 0.196E+01 0.892E+00 0.244E+03 0.000E+00 0.114E-02 0.000E+00 0.139E+00 0.377E-06 0.528E-05 0.803E-06 0.678E-05 0.432E-06 0.210E-07 0.138E+00 0.347E-02 0.100E-11 .00000E+00 0.000E+00 0.000E+00
BIGSUB   4        0   51.36293E+02 0.000E+00 0.000E+00 0.196E+01 0.934E+00 0.307E+03 0.000E+00 0.764E-03 0.000E+00 0.239E+00 0.222E-06 0.407E-05 0.614E-06 0.578E-05 0.351E-06 0.245E-08 0.238E+00 0.500E-02 0.100E-11 .00000E+00 0.000E+00 0.000E+00
BIGSUB   5        0   51.58984E+02 0.000E+00 0.000E+00 0.196E+01 0.759E+00 0.226E+03 0.000E+00 0.158E-04 0.000E+00 0.114E+00 0.228E-07 0.116E-07 0.199E-08 0.765E-07 0.484E-08 0.282E-08 0.113E+00 0.125E-02 0.100E-11 .00000E+00 0.000E+00 0.000E+00
BIGSUB   1        0   52.76460E+02 0.000E+00 0.000E+00 0.288E+01 0.102E+01 0.190E+03 0.000E+00 0.359E-05 0.000E+00 0.235E+00 0.491E-08 0.475E-07 0.617E-08 0.168E-07 0.144E-08 0.130E-08 0.235E+00 0.816E-02 0.100E-11 .00000E+00 0.000E+00 0.000E+00
BIGSUB   2        0   52.85095E+02 0.000E+00 0.000E+00 0.288E+01 0.112E+01 0.195E+03 0.000E+00 0.743E-06 0.000E+00 0.299E+00 0.251E-10 0.747E-09 0.747E-09 0.747E-09 0.747E-09 0.149E-08 0.299E+00 0.897E-02 0.100E-11 .00000E+00 0.000E+00 0.000E+00
BIGSUB   3        0   52.34257E+02 0.000E+00 0.000E+00 0.286E+01 0.134E+01 0.243E+03 0.000E+00 0.933E-03 0.000E+00 0.124E+00 0.307E-06 0.430E-05 0.654E-06 0.552E-05 0.352E-06 0.174E-07 0.124E+00 0.321E-02 0.100E-11 .00000E+00 0.000E+00 0.000E+00
BIGSUB   4        0   52.36293E+02 0.000E+00 0.000E+00 0.287E+01 0.142E+01 0.306E+03 0.000E+00 0.647E-03 0.000E+00 0.219E+00 0.188E-06 0.345E-05 0.520E-06 0.489E-05 0.298E-06 0.235E-08 0.218E+00 0.468E-02 0.100E-11 .00000E+00 0.000E+00 0.000E+00
BIGSUB   5        0   52.58984E+02 0.000E+00 0.000E+00 0.286E+01 0.116E+01 0.225E+03 0.000E+00 0.836E-05 0.000E+00 0.992E-01 0.119E-07 0.621E-08 0.119E-08 0.400E-07 0.268E-08 0.178E-08 0.992E-01 0.109E-02 0.100E-11 .00000E+00 0.000E+00 0.000E+00
BIGSUB   1        0   53.76460E+02 0.000E+00 0.000E+00 0.200E+01 0.723E+00 0.190E+03 0.000E+00 0.193E-05 0.000E+00 0.222E+00 0.242E-08 0.235E-07 0.321E-08 0.844E-08 0.877E-09 0.121E-08 0.222E+00 0.779E-02 0.100E-11 .00000E+00 0.000E+00 0.000E+00
BIGSUB   2        0   53.85095E+02 0.000E+00 0.000E+00 0.200E+01 0.799E+00 0.194E+03 0.000E+00 0.743E-06 0.000E+00 0.282E+00 0.924E-11 0.747E-09 0.747E-09 0.747E-09 0.747E-09 0.149E-08 0.282E+00 0.854E-02 0.100E-11 .00000E+00 0.000E+00 0.000E+00
BIGSUB   3        0   53.34257E+02 0.000E+00 0.000E+00 0.199E+01 0.954E+00 0.242E+03 0.000E+00 0.760E-03 0.000E+00 0.112E+00 0.250E-06 0.351E-05 0.534E-06 0.450E-05 0.287E-06 0.145E-07 0.112E+00 0.298E-02 0.100E-11 .00000E+00 0.000E+00 0.000E+00
BIGSUB   4        0   53.36293E+02 0.000E+00 0.000E+00 0.199E+01 0.102E+01 0.305E+03 0.000E+00 0.548E-03 0.000E+00 0.201E+00 0.159E-06 0.292E-05 0.441E-06 0.414E-05 0.252E-06 0.226E-08 0.201E+00 0.440E-02 0.100E-11 .00000E+00 0.000E+00 0.000E+00
BIGSUB   5        0   53.58984E+02 0.000E+00 0.000E+00 0.198E+01 0.841E+00 0.224E+03 0.000E+00 0.451E-05 0.000E+00 0.872E-01 0.618E-08 0.339E-08 0.777E-09 0.210E-07 0.155E-08 0.137E-08 0.872E-01 0.951E-03 0.100E-11 .00000E+00 0.000E+00 0.000E+00
BIGSUB   1        0   54.76460E+02 0.000E+00 0.000E+00 0.200E+01 0.703E+00 0.189E+03 0.000E+00 0.112E-05 0.000E+00 0.211E+00 0.119E-08 0.117E-07 0.175E-08 0.432E-08 0.606E-09 0.121E-08 0.211E+00 0.744E-02 0.100E-11 .00000E+00 0.000E+00 0.000E+00
BIGSUB   2        0   54.85095E+02 0.000E+00 0.000E+00 0.199E+01 0.769E+00 0.193E+03 0.000E+00 0.743E-06 0.000E+00 0.267E+00 0.367E-11 0.747E-09 0.747E-09 0.747E-09 0.747E-09 0.149E-08 0.267E+00 0.814E-02 0.100E-11 .00000E+00 0.000E+00 0.000E+00
BIGSUB   3        0   54.34257E+02 0.000E+00 0.000E+00 0.198E+01 0.904E+00 0.241E+03 0.000E+00 0.620E-03 0.000E+00 0.102E+00 0.204E-06 0.286E-05 0.435E-06 0.367E-05 0.234E-06 0.121E-07 0.101E+00 0.277E-02 0.100E-11 .00000E+00 0.000E+00 0.000E+00
BIGSUB   4        0   54.36293E+02 0.000E+00 0.000E+00 0.198E+01 0.944E+00 0.304E+03 0.000E+00 0.465E-03 0.000E+00 0.186E+00 0.135E-06 0.247E-05 0.373E-06 0.351E-05 0.214E-06 0.218E-08 0.185E+00 0.413E-02 0.100E-11 .00000E+00 0.000E+00 0.000E+00
BIGSUB   5        0   54.58984E+02 0.000E+00 0.000E+00 0.197E+01 0.779E+00 0.224E+03 0.000E+00 0.251E-05 0.000E+00 0.772E-01 0.322E-08 0.192E-08 0.612E-09 0.111E-07 0.963E-09 0.122E-08 0.772E-01 0.837E-03 0.100E-11 .00000E+00 0.000E+00 0.000E+00
BIGSUB   1        0   55.76460E+02 0.301E+01 0.000E+00 0.119E+01 0.536E+00 0.191E+03 0.000E+00 0.310E-02 0.000E+00 0.215E+00 0.112E-04 0.109E-03 0.222E-04 0.594E-03 0.826E-05 0.121E-08 0.212E+00 0.746E-02 0.100E-11 .10477E-02 0.000E+00 0.136E-02
BIGSUB   2        0   55.85095E+02 0.251E+01 0.000E+00 0.119E+01 0.589E+00 0.195E+03 0.000E+00 0.743E-06 0.000E+00 0.259E+00 0.171E-11 0.747E-09 0.747E-09 0.747E-09 0.747E-09 0.149E-08 0.259E+00 0.793E-02 0.100E-11 .00000E+00 0.000E+00 0.000E+00
BIGSUB   3        0   55.34257E+02 0.151E+01 0.000E+00 0.117E+01 0.694E+00 0.242E+03 0.000E+00 0.780E-06 0.000E+00 0.926E-01 0.166E-06 0.233E-05 0.355E-06 0.585E-04 0.296E-06 0.102E-07 0.926E-01 0.259E-02 0.100E-11 .00000E+00 0.000E+00 0.270E-03
BIGSUB   4        0   55.36293E+02 0.151E+01 0.000E+00 0.118E+01 0.768E+00 0.305E+03 0.000E+00 0.170E-03 0.000E+00 0.172E+00 0.114E-06 0.210E-05 0.316E-06 0.526E-04 0.291E-06 0.212E-08 0.172E+00 0.390E-02 0.100E-11 .11477E-01 0.000E+00 0.533E-03
BIGSUB   5        0   55.58984E+02 0.151E+01 0.000E+00 0.117E+01 0.654E+00 0.224E+03 0.000E+00 0.146E-05 0.000E+00 0.688E-01 0.168E-08 0.116E-08 0.612E-09 0.593E-08 0.658E-09 0.122E-08 0.688E-01 0.742E-03 0.100E-11 .00000E+00 0.000E+00 0.000E+00
BIGSUB   1        0   56.76460E+02 0.131E+01 0.000E+00 0.830E+00 0.418E+00 0.192E+03 0.000E+00 0.539E-06 0.000E+00 0.210E+00 0.433E-06 0.419E-05 0.858E-06 0.402E-04 0.352E-06 0.121E-08 0.210E+00 0.729E-02 0.100E-11 .00000E+00 0.000E+00 0.107E-02
BIGSUB   2        0   56.85095E+02 0.894E+01 0.000E+00 0.829E+00 0.464E+00 0.200E+03 0.719E+00 0.907E+00 0.000E+00 0.127E+01 0.598E-03 0.217E-02 0.272E-03 0.146E-01 0.314E-03 0.565E-04 0.364E+00 0.884E-02 0.100E-11 .58029E-02 0.857E-01 0.133E+00
BIGSUB   3        0   56.34257E+02 0.633E+01 0.000E+00 0.822E+00 0.551E+00 0.247E+03 0.000E+00 0.229E+00 0.000E+00 0.400E+00 0.637E-03 0.197E-02 0.253E-03 0.822E-02 0.913E-04 0.678E-04 0.171E+00 0.327E-02 0.100E-11 .19753E-01 0.896E-01 0.409E-01
BIGSUB   4        0   56.36293E+02 0.633E+01 0.000E+00 0.823E+00 0.629E+00 0.309E+03 0.000E+00 0.174E+00 0.000E+00 0.423E+00 0.334E-03 0.207E-02 0.270E-03 0.653E-02 0.820E-04 0.425E-04 0.249E+00 0.464E-02 0.100E-11 .19699E-01 0.906E-01 0.353E-01
BIGSUB   5        0   56.58984E+02 0.633E+01 0.000E+00 0.820E+00 0.541E+00 0.229E+03 0.000E+00 0.107E+00 0.000E+00 0.276E+00 0.902E-04 0.415E-04 0.610E-05 0.447E-02 0.452E-04 0.880E-05 0.169E+00 0.168E-02 0.100E-11 .75561E-03 0.335E-03 0.273E-01
BIGSUB   1        0   57.76460E+02 0.000E+00 0.000E+00 0.114E+00 0.403E-01 0.192E+03 0.000E+00 0.257E-04 0.000E+00 0.199E+00 0.171E-07 0.163E-06 0.339E-07 0.157E-05 0.143E-07 0.121E-08 0.199E+00 0.692E-02 0.100E-11 .00000E+00 0.000E+00 0.000E+00
BIGSUB   2        0   57.85095E+02 0.000E+00 0.000E+00 0.114E+00 0.450E-01 0.200E+03 0.150E+00 0.271E+00 0.000E+00 0.609E+00 0.166E-03 0.742E-03 0.927E-04 0.413E-02 0.874E-04 0.157E-04 0.338E+00 0.842E-02 0.100E-11 .00000E+00 0.000E+00 0.000E+00
BIGSUB   3        0   57.34257E+02 0.000E+00 0.000E+00 0.111E+00 0.545E-01 0.247E+03 0.000E+00 0.481E-01 0.000E+00 0.198E+00 0.751E-04 0.190E-03 0.249E-04 0.150E-02 0.163E-04 0.763E-05 0.150E+00 0.298E-02 0.100E-11 .00000E+00 0.000E+00 0.000E+00
BIGSUB   4        0   57.36293E+02 0.000E+00 0.000E+00 0.111E+00 0.596E-01 0.309E+03 0.000E+00 0.173E-01 0.000E+00 0.243E+00 0.207E-04 0.149E-03 0.190E-04 0.628E-03 0.750E-05 0.255E-05 0.226E+00 0.431E-02 0.100E-11 .00000E+00 0.000E+00 0.000E+00
BIGSUB   5        0   57.58984E+02 0.000E+00 0.000E+00 0.110E+00 0.479E-01 0.229E+03 0.000E+00 0.725E-01 0.000E+00 0.216E+00 0.470E-04 0.216E-04 0.318E-05 0.226E-02 0.225E-04 0.459E-05 0.144E+00 0.142E-02 0.100E-11 .00000E+00 0.000E+00 0.000E+00
BIGSUB   1        0   58.76460E+02 0.000E+00 0.000E+00 0.616E+00 0.214E+00 0.192E+03 0.000E+00 0.153E-05 0.000E+00 0.188E+00 0.738E-09 0.725E-08 0.185E-08 0.625E-07 0.108E-08 0.121E-08 0.188E+00 0.658E-02 0.100E-11 .00000E+00 0.000E+00 0.000E+00
BIGSUB   2        0   58.85095E+02 0.000E+00 0.000E+00 0.615E+00 0.234E+00 0.200E+03 0.363E-01 0.834E-01 0.000E+00 0.396E+00 0.490E-04 0.257E-03 0.320E-04 0.129E-02 0.273E-04 0.469E-05 0.312E+00 0.798E-02 0.100E-11 .00000E+00 0.000E+00 0.000E+00
BIGSUB   3        0   58.34257E+02 0.000E+00 0.000E+00 0.608E+00 0.278E+00 0.246E+03 0.000E+00 0.116E-01 0.000E+00 0.143E+00 0.131E-04 0.338E-04 0.457E-05 0.354E-03 0.410E-05 0.124E-05 0.132E+00 0.273E-02 0.100E-11 .00000E+00 0.000E+00 0.000E+00
BIGSUB   4        0   58.36293E+02 0.000E+00 0.000E+00 0.609E+00 0.293E+00 0.309E+03 0.000E+00 0.252E-02 0.000E+00 0.208E+00 0.213E-05 0.205E-04 0.265E-05 0.897E-04 0.122E-05 0.223E-06 0.205E+00 0.401E-02 0.100E-11 .00000E+00 0.000E+00 0.000E+00
BIGSUB   5        0   58.58984E+02 0.000E+00 0.000E+00 0.605E+00 0.236E+00 0.229E+03 0.000E+00 0.372E-01 0.000E+00 0.160E+00 0.245E-04 0.113E-04 0.166E-05 0.117E-02 0.115E-04 0.239E-05 0.122E+00 0.121E-02 0.100E-11 .00000E+00 0.000E+00 0.000E+00
BIGSUB   1        0   59.76460E+02 0.000E+00 0.000E+00 0.936E+00 0.326E+00 0.191E+03 0.000E+00 0.603E-06 0.000E+00 0.178E+00 0.610E-10 0.847E-09 0.609E-09 0.301E-08 0.606E-09 0.121E-08 0.178E+00 0.627E-02 0.100E-11 .00000E+00 0.000E+00 0.000E+00
BIGSUB   2        0   59.85095E+02 0.000E+00 0.000E+00 0.935E+00 0.357E+00 0.199E+03 0.107E-01 0.269E-01 0.000E+00 0.316E+00 0.151E-04 0.895E-04 0.111E-04 0.418E-03 0.889E-05 0.145E-05 0.289E+00 0.756E-02 0.100E-11 .00000E+00 0.000E+00 0.000E+00
BIGSUB   3        0   59.34257E+02 0.000E+00 0.000E+00 0.925E+00 0.425E+00 0.246E+03 0.000E+00 0.376E-02 0.000E+00 0.120E+00 0.328E-05 0.156E-04 0.214E-05 0.110E-03 0.153E-05 0.268E-06 0.116E+00 0.251E-02 0.100E-11 .00000E+00 0.000E+00 0.000E+00
BIGSUB   4        0   59.36293E+02 0.000E+00 0.000E+00 0.926E+00 0.448E+00 0.308E+03 0.000E+00 0.919E-03 0.000E+00 0.188E+00 0.486E-06 0.773E-05 0.104E-05 0.298E-04 0.515E-06 0.244E-07 0.187E+00 0.374E-02 0.100E-11 .00000E+00 0.000E+00 0.000E+00
BIGSUB   5        0   59.58984E+02 0.000E+00 0.000E+00 0.921E+00 0.362E+00 0.229E+03 0.000E+00 0.192E-01 0.000E+00 0.124E+00 0.128E-04 0.587E-05 0.863E-06 0.604E-03 0.596E-05 0.125E-05 0.105E+00 0.104E-02 0.100E-11 .00000E+00 0.000E+00 0.000E+00
BIGSUB   1        0   60.76460E+02 0.000E+00 0.000E+00 0.145E+01 0.525E+00 0.191E+03 0.000E+00 0.603E-06 0.000E+00 0.169E+00 0.181E-10 0.606E-09 0.606E-09 0.645E-09 0.606E-09 0.121E-08 0.169E+00 0.598E-02 0.100E-11 .00000E+00 0.000E+00 0.000E+00
BIGSUB   2        0   60.85095E+02 0.000E+00 0.000E+00 0.145E+01 0.579E+00 0.199E+03 0.380E-02 0.887E-02 0.000E+00 0.278E+00 0.477E-05 0.312E-04 0.388E-05 0.139E-03 0.296E-05 0.460E-06 0.269E+00 0.717E-02 0.100E-11 .00000E+00 0.000E+00 0.000E+00
BIGSUB   3        0   60.34257E+02 0.000E+00 0.000E+00 0.143E+01 0.691E+00 0.245E+03 0.000E+00 0.178E-02 0.000E+00 0.105E+00 0.118E-05 0.113E-04 0.155E-05 0.494E-04 0.846E-06 0.718E-07 0.104E+00 0.232E-02 0.100E-11 .00000E+00 0.000E+00 0.000E+00
BIGSUB   4        0   60.36293E+02 0.000E+00 0.000E+00 0.144E+01 0.739E+00 0.308E+03 0.000E+00 0.645E-03 0.000E+00 0.172E+00 0.276E-06 0.552E-05 0.749E-06 0.201E-04 0.378E-06 0.405E-08 0.172E+00 0.351E-02 0.100E-11 .00000E+00 0.000E+00 0.000E+00
BIGSUB   5        0   60.58984E+02 0.000E+00 0.000E+00 0.143E+01 0.604E+00 0.228E+03 0.000E+00 0.999E-02 0.000E+00 0.101E+00 0.664E-05 0.306E-05 0.450E-06 0.314E-03 0.310E-05 0.649E-06 0.906E-01 0.897E-03 0.100E-11 .00000E+00 0.000E+00 0.000E+00
BIGSUB   1        0   61.76460E+02 0.000E+00 0.000E+00 0.107E+01 0.389E+00 0.190E+03 0.000E+00 0.603E-06 0.000E+00 0.161E+00 0.886E-11 0.606E-09 0.606E-09 0.606E-09 0.606E-09 0.121E-08 0.161E+00 0.570E-02 0.100E-11 .00000E+00 0.000E+00 0.000E+00
BIGSUB   2        0   61.85095E+02 0.000E+00 0.000E+00 0.107E+01 0.430E+00 0.198E+03 0.133E-02 0.298E-02 0.000E+00 0.254E+00 0.154E-05 0.109E-04 0.136E-05 0.467E-04 0.100E-05 0.150E-06 0.251E+00 0.681E-02 0.100E-11 .00000E+00 0.000E+00 0.000E+00
BIGSUB   3        0   61.34257E+02 0.000E+00 0.000E+00 0.106E+01 0.513E+00 0.245E+03 0.000E+00 0.115E-02 0.000E+00 0.939E-01 0.618E-06 0.896E-05 0.123E-05 0.307E-04 0.595E-06 0.257E-07 0.927E-01 0.216E-02 0.100E-11 .00000E+00 0.000E+00 0.000E+00
BIGSUB   4        0   61.36293E+02 0.000E+00 0.000E+00 0.106E+01 0.550E+00 0.307E+03 0.000E+00 0.531E-03 0.000E+00 0.158E+00 0.218E-06 0.456E-05 0.620E-06 0.164E-04 0.314E-06 0.190E-08 0.158E+00 0.329E-02 0.100E-11 .00000E+00 0.000E+00 0.000E+00
BIGSUB   5        0   61.58984E+02 0.000E+00 0.000E+00 0.105E+01 0.450E+00 0.228E+03 0.000E+00 0.519E-02 0.000E+00 0.839E-01 0.346E-05 0.159E-05 0.234E-06 0.164E-03 0.161E-05 0.338E-06 0.787E-01 0.779E-03 0.100E-11 .00000E+00 0.000E+00 0.000E+00
BIGSUB   1        0   62.76460E+02 0.000E+00 0.000E+00 0.155E+01 0.557E+00 0.190E+03 0.000E+00 0.603E-06 0.000E+00 0.153E+00 0.465E-11 0.606E-09 0.606E-09 0.606E-09 0.606E-09 0.121E-08 0.153E+00 0.544E-02 0.100E-11 .00000E+00 0.000E+00 0.000E+00
BIGSUB   2        0   62.85095E+02 0.000E+00 0.000E+00 0.155E+01 0.613E+00 0.198E+03 0.437E-03 0.101E-02 0.000E+00 0.236E+00 0.509E-06 0.383E-05 0.475E-06 0.159E-04 0.342E-06 0.499E-07 0.235E+00 0.648E-02 0.100E-11 .00000E+00 0.000E+00 0.000E+00
BIGSUB   3        0   62.34257E+02 0.000E+00 0.000E+00 0.153E+01 0.727E+00 0.244E+03 0.000E+00 0.860E-03 0.000E+00 0.844E-01 0.422E-06 0.726E-05 0.995E-06 0.227E-04 0.462E-06 0.133E-07 0.835E-01 0.201E-02 0.100E-11 .00000E+00 0.000E+00 0.000E+00
BIGSUB   4        0   62.36293E+02 0.000E+00 0.000E+00 0.154E+01 0.770E+00 0.306E+03 0.000E+00 0.448E-03 0.000E+00 0.146E+00 0.183E-06 0.385E-05 0.523E-06 0.138E-04 0.265E-06 0.187E-08 0.146E+00 0.310E-02 0.100E-11 .00000E+00 0.000E+00 0.000E+00
BIGSUB   5        0   62.58984E+02 0.000E+00 0.000E+00 0.153E+01 0.630E+00 0.227E+03 0.000E+00 0.270E-02 0.000E+00 0.715E-01 0.180E-05 0.830E-06 0.122E-06 0.851E-04 0.839E-06 0.177E-06 0.688E-01 0.681E-03 0.100E-11 .00000E+00 0.000E+00 0.000E+00
BIGSUB   1        0   63.76460E+02 0.000E+00 0.000E+00 0.180E+01 0.640E+00 0.189E+03 0.000E+00 0.603E-06 0.000E+00 0.146E+00 0.258E-11 0.606E-09 0.606E-09 0.606E-09 0.606E-09 0.121E-08 0.146E+00 0.520E-02 0.100E-11 .00000E+00 0.000E+00 0.000E+00
BIGSUB   2        0   63.85095E+02 0.000E+00 0.000E+00 0.180E+01 0.702E+00 0.197E+03 0.612E-04 0.347E-03 0.000E+00 0.221E+00 0.171E-06 0.134E-05 0.167E-06 0.547E-05 0.118E-06 0.170E-07 0.221E+00 0.617E-02 0.100E-11 .00000E+00 0.000E+00 0.000E+00
BIGSUB   3        0   63.34257E+02 0.000E+00 0.000E+00 0.178E+01 0.827E+00 0.243E+03 0.000E+00 0.683E-03 0.000E+00 0.764E-01 0.324E-06 0.590E-05 0.810E-06 0.179E-04 0.371E-06 0.923E-08 0.757E-01 0.188E-02 0.100E-11 .00000E+00 0.000E+00 0.000E+00
BIGSUB   4        0   63.36293E+02 0.000E+00 0.000E+00 0.178E+01 0.865E+00 0.306E+03 0.000E+00 0.379E-03 0.000E+00 0.135E+00 0.155E-06 0.325E-05 0.443E-06 0.117E-04 0.225E-06 0.185E-08 0.135E+00 0.292E-02 0.100E-11 .00000E+00 0.000E+00 0.000E+00
BIGSUB   5        0   63.58984E+02 0.000E+00 0.000E+00 0.178E+01 0.710E+00 0.226E+03 0.000E+00 0.141E-02 0.000E+00 0.620E-01 0.939E-06 0.433E-06 0.638E-07 0.443E-04 0.437E-06 0.923E-07 0.606E-01 0.600E-03 0.100E-11 .00000E+00 0.000E+00 0.000E+00
BIGSUB   1        0   64.76460E+02 0.000E+00 0.000E+00 0.137E+01 0.497E+00 0.189E+03 0.000E+00 0.603E-06 0.000E+00 0.139E+00 0.157E-11 0.606E-09 0.606E-09 0.606E-09 0.606E-09 0.121E-08 0.139E+00 0.498E-02 0.100E-11 .00000E+00 0.000E+00 0.000E+00
BIGSUB   2        0   64.85095E+02 0.000E+00 0.000E+00 0.137E+01 0.554E+00 0.196E+03 0.000E+00 0.120E-03 0.000E+00 0.208E+00 0.579E-07 0.472E-06 0.587E-07 0.189E-05 0.409E-07 0.616E-08 0.208E+00 0.588E-02 0.100E-11 .00000E+00 0.000E+00 0.000E+00
BIGSUB   3        0   64.34257E+02 0.000E+00 0.000E+00 0.136E+01 0.658E+00 0.243E+03 0.000E+00 0.553E-03 0.000E+00 0.695E-01 0.260E-06 0.481E-05 0.660E-06 0.145E-04 0.302E-06 0.760E-08 0.690E-01 0.177E-02 0.100E-11 .00000E+00 0.000E+00 0.000E+00
BIGSUB   4        0   64.36293E+02 0.000E+00 0.000E+00 0.136E+01 0.700E+00 0.305E+03 0.000E+00 0.321E-03 0.000E+00 0.125E+00 0.131E-06 0.276E-05 0.376E-06 0.991E-05 0.191E-06 0.184E-08 0.125E+00 0.276E-02 0.100E-11 .00000E+00 0.000E+00 0.000E+00
BIGSUB   5        0   64.58984E+02 0.000E+00 0.000E+00 0.135E+01 0.580E+00 0.226E+03 0.000E+00 0.734E-03 0.000E+00 0.544E-01 0.489E-06 0.226E-06 0.334E-07 0.231E-04 0.228E-06 0.484E-07 0.537E-01 0.532E-03 0.100E-11 .00000E+00 0.000E+00 0.000E+00
BIGSUB   1        0   65.76460E+02 0.000E+00 0.000E+00 0.153E+01 0.545E+00 0.188E+03 0.000E+00 0.603E-06 0.000E+00 0.133E+00 0.106E-11 0.606E-09 0.606E-09 0.606E-09 0.606E-09 0.121E-08 0.133E+00 0.476E-02 0.100E-11 .00000E+00 0.000E+00 0.000E+00
BIGSUB   2        0   65.85095E+02 0.000E+00 0.000E+00 0.153E+01 0.606E+00 0.196E+03 0.000E+00 0.418E-04 0.000E+00 0.196E+00 0.198E-07 0.166E-06 0.209E-07 0.657E-06 0.144E-07 0.269E-08 0.196E+00 0.561E-02 0.100E-11 .00000E+00 0.000E+00 0.000E+00
BIGSUB   3        0   65.34257E+02 0.000E+00 0.000E+00 0.151E+01 0.713E+00 0.242E+03 0.000E+00 0.449E-03 0.000E+00 0.636E-01 0.210E-06 0.392E-05 0.538E-06 0.118E-04 0.246E-06 0.650E-08 0.631E-01 0.166E-02 0.100E-11 .00000E+00 0.000E+00 0.000E+00
BIGSUB   4        0   65.36293E+02 0.000E+00 0.000E+00 0.151E+01 0.749E+00 0.304E+03 0.000E+00 0.272E-03 0.000E+00 0.117E+00 0.111E-06 0.233E-05 0.318E-06 0.839E-05 0.162E-06 0.183E-08 0.116E+00 0.261E-02 0.100E-11 .00000E+00 0.000E+00 0.000E+00
BIGSUB   5        0   65.58984E+02 0.000E+00 0.000E+00 0.151E+01 0.621E+00 0.225E+03 0.000E+00 0.382E-03 0.000E+00 0.483E-01 0.255E-06 0.118E-06 0.176E-07 0.120E-04 0.119E-06 0.255E-07 0.479E-01 0.474E-03 0.100E-11 .00000E+00 0.000E+00 0.000E+00
